pglib_opf_case2746wp_k/pglib_opf_case2746wp_k_14regions.m
% -------------------------------------------------------------------------
% Partitioned MATPOWER Case File
% Copyright (c) 2025 Milad Hasanzadeh
% Generated on: 2025-06-21
% This file contains partitioned data for 14 regions


% -------------------- mpc_regionR1 --------------------

mpc_regionR1.version = '2';
mpc_regionR1.baseMVA = 100.0000;
mpc_regionR1.bus = [
%	bus_i       type        Pd          Qd          Gs          Bs          area        Vm          Va          baseKV      zone        Vmax        Vmin        
	 1	 1	 0	 0	 0	 0	 1	 1.03	 0	 220	 3	 1.11	 0.95;
	 2	 1	 0	 0	 0	 0	 1	 1.03	 0	 220	 3	 1.11	 0.95;
	 3	 1	 0	 0	 0	 0	 1	 1.03	 0	 220	 3	 1.11	 0.95;
	 4	 1	 0	 0	 0	 0	 1	 1.03	 0	 220	 3	 1.11	 0.95;
	 5	 2	 7	 18	 0	 0	 1	 1.03	 0	 220	 3	 1.11	 0.95;
	 6	 2	 8	 15	 0	 0	 1	 1.03	 0	 220	 3	 1.11	 0.95;
	 7	 1	 0	 0	 0	 0	 1	 1.035	 0	 110	 3	 1.12	 0.95;
	 8	 1	 1.067	 0.279	 0	 0	 1	 1.035	 0	 110	 3	 1.12	 0.95;
	 9	 1	 13.772	 18.559	 0	 0	 1	 1.035	 0	 110	 3	 1.12	 0.95;
	 10	 1	 0	 0	 0	 0	 1	 1.035	 0	 110	 3	 1.12	 0.95;
	 11	 2	 22.579	 8.825	 0	 0	 1	 1.035	 0	 110	 3	 1.12	 0.95;
	 12	 1	 11.996	 3.954	 0	 0	 1	 1.035	 0	 110	 3	 1.12	 0.95;
	 13	 1	 11.29	 2.938	 0	 0	 1	 1.035	 0	 110	 3	 1.12	 0.95;
	 14	 1	 6.295	 1.725	 0	 0	 1	 1.035	 0	 110	 3	 1.12	 0.95;
	 15	 1	 15.233	 4.781	 0	 0	 1	 1.035	 0	 110	 3	 1.12	 0.95;
	 16	 1	 7.727	 3.382	 0	 0	 1	 1.035	 0	 110	 3	 1.12	 0.95;
	 17	 1	 8.319	 2.14	 0	 0	 1	 1.035	 0	 110	 3	 1.12	 0.95;
	 18	 1	 0	 0	 0	 0	 1	 1.035	 0	 110	 3	 1.12	 0.95;
	 19	 1	 33.05	 1.932	 0	 0	 1	 1.035	 0	 110	 3	 1.12	 0.95;
	 20	 1	 0	 0	 0	 0	 1	 1.035	 0	 110	 3	 1.12	 0.95;
	 21	 1	 19.368	 6.342	 0	 0	 1	 1.035	 0	 110	 3	 1.12	 0.95;
	 22	 1	 0	 0	 0	 0	 1	 1.035	 0	 110	 3	 1.12	 0.95;
	 23	 2	 23.169	 19.513	 0	 0	 1	 1.035	 0	 110	 3	 1.12	 0.95;
	 24	 2	 0	 4	 0	 0	 1	 1.035	 0	 110	 3	 1.12	 0.95;
	 25	 1	 10.691	 3.45	 0	 0	 1	 1.035	 0	 110	 3	 1.12	 0.95;
	 26	 1	 0	 0.075	 0	 0	 1	 1.035	 0	 110	 3	 1.12	 0.95;
	 27	 1	 0	 0	 0	 0	 1	 1.035	 0	 110	 3	 1.12	 0.95;
	 28	 1	 9.624	 2.471	 0	 0	 1	 1.035	 0	 110	 3	 1.12	 0.95;
	 29	 1	 5.828	 1.752	 0	 0	 1	 1.035	 0	 110	 3	 1.12	 0.95;
	 30	 1	 18.282	 6.527	 0	 0	 1	 1.035	 0	 110	 3	 1.12	 0.95;
	 31	 1	 0	 0	 0	 0	 1	 1.035	 0	 110	 3	 1.12	 0.95;
	 32	 2	 0	 4	 0	 0	 1	 1.035	 0	 110	 3	 1.12	 0.95;
	 33	 1	 0	 0	 0	 0	 1	 1.035	 0	 110	 3	 1.12	 0.95;
	 34	 1	 0.023	 0.14	 0	 0	 1	 1.035	 0	 110	 3	 1.12	 0.95;
	 35	 1	 0	 0	 0	 0	 1	 1.035	 0	 110	 3	 1.12	 0.95;
	 36	 1	 0	 0	 0	 0	 1	 1.035	 0	 110	 3	 1.12	 0.95;
	 37	 1	 0	 0	 0	 0	 1	 1.035	 0	 110	 3	 1.12	 0.95;
	 38	 1	 0	 0	 0	 0	 1	 1.035	 0	 110	 3	 1.12	 0.95;
	 39	 1	 2.85	 0.746	 0	 0	 1	 1.035	 0	 110	 3	 1.12	 0.95;
	 40	 1	 0	 0	 0	 0	 1	 1.035	 0	 110	 3	 1.12	 0.95;
	 41	 1	 1.781	 0.373	 0	 0	 1	 1.035	 0	 110	 3	 1.12	 0.95;
	 42	 1	 22.596	 5.736	 0	 0	 1	 1.035	 0	 110	 3	 1.12	 0.95;
	 43	 1	 0	 0	 0	 0	 1	 1.035	 0	 110	 3	 1.12	 0.95;
	 44	 1	 3.924	 1.329	 0	 0	 1	 1.035	 0	 110	 3	 1.12	 0.95;
	 45	 1	 0	 0	 0	 0	 1	 1.035	 0	 110	 3	 1.12	 0.95;
	 46	 1	 0	 0	 0	 0	 1	 1.035	 0	 110	 3	 1.12	 0.95;
	 47	 1	 13.891	 5.129	 0	 0	 1	 1.035	 0	 110	 3	 1.12	 0.95;
	 48	 1	 10.097	 3.824	 0	 0	 1	 1.035	 0	 110	 3	 1.12	 0.95;
	 49	 1	 0	 0	 0	 0	 1	 1.035	 0	 110	 3	 1.12	 0.95;
	 50	 1	 4.273	 0.372	 0	 0	 1	 1.035	 0	 110	 3	 1.12	 0.95;
	 51	 1	 0	 0	 0	 0	 1	 1.035	 0	 110	 3	 1.12	 0.95;
	 52	 1	 4.274	 1.679	 0	 0	 1	 1.035	 0	 110	 3	 1.12	 0.95;
	 53	 1	 1.187	 0.373	 0	 0	 1	 1.035	 0	 110	 3	 1.12	 0.95;
	 54	 1	 2.374	 0.839	 0	 0	 1	 1.035	 0	 110	 3	 1.12	 0.95;
	 55	 1	 0.474	 0.187	 0	 0	 1	 1.035	 0	 110	 3	 1.12	 0.95;
	 56	 1	 0	 0	 0	 0	 1	 1.035	 0	 110	 3	 1.12	 0.95;
	 57	 1	 0	 0	 0	 0	 1	 1.035	 0	 110	 3	 1.12	 0.95;
	 58	 2	 9.681	 9.119	 0	 0	 1	 1.035	 0	 110	 3	 1.12	 0.95;
	 59	 2	 11.519	 12.532	 0	 0	 1	 1.035	 0	 110	 3	 1.12	 0.95;
	 60	 1	 0	 0	 0	 0	 1	 1.035	 0	 110	 3	 1.12	 0.95;
	 61	 1	 0	 0	 0	 0	 1	 1.035	 0	 110	 3	 1.12	 0.95;
	 62	 1	 56.987	 16.788	 0	 0	 1	 1.035	 0	 110	 3	 1.12	 0.95;
	 63	 2	 90.209	 40.084	 0	 0	 1	 1.035	 0	 110	 3	 1.12	 0.95;
	 64	 2	 0	-0.01	 0	 0	 1	 1.035	 0	 110	 3	 1.12	 0.95;
	 65	 1	 7.736	 1.759	 0	 0	 1	 1.035	 0	 110	 3	 1.12	 0.95;
	 66	 1	 0	 0	 0	 0	 1	 1.035	 0	 110	 3	 1.12	 0.95;
	 67	 1	 1.424	 0.373	 0	 0	 1	 1.035	 0	 110	 3	 1.12	 0.95;
	 68	 1	 7.722	 2.565	 0	 0	 1	 1.035	 0	 110	 3	 1.12	 0.95;
	 69	 1	 0	 0	 0	 0	 1	 1.035	 0	 110	 3	 1.12	 0.95;
	 70	 1	 7.485	 1.632	 0	 0	 1	 1.035	 0	 110	 3	 1.12	 0.95;
	 71	 1	 4.038	 0.979	 0	 0	 1	 1.035	 0	 110	 3	 1.12	 0.95;
	 72	 1	 11.049	 2.844	 0	 0	 1	 1.035	 0	 110	 3	 1.12	 0.95;
	 73	 1	 0	 0	 0	 0	 1	 1.035	 0	 110	 3	 1.12	 0.95;
	 74	 1	 0	 0	 0	 0	 1	 1.035	 0	 110	 3	 1.12	 0.95;
	 75	 1	 0	 0	 0	 0	 1	 1.035	 0	 110	 3	 1.12	 0.95;
	 76	 1	 4.157	 1.586	 0	 0	 1	 1.035	 0	 110	 3	 1.12	 0.95;
	 77	 1	 0	 0	 0	 0	 1	 1.035	 0	 110	 3	 1.12	 0.95;
	 78	 1	 0.831	 0.332	 0	 0	 1	 1.035	 0	 110	 3	 1.12	 0.95;
	 79	 1	 0	 0	 0	 0	 1	 1.035	 0	 110	 3	 1.12	 0.95;
	 80	 1	 11.288	 2.47	 0	 0	 1	 1.035	 0	 110	 3	 1.12	 0.95;
	 81	 1	 0	 0	 0	 0	 1	 1.035	 0	 110	 3	 1.12	 0.95;
	 82	 1	 10.474	 4.812	 0	 0	 1	 1.035	 0	 110	 3	 1.12	 0.95;
	 83	 1	 0	 0	 0	 0	 1	 1.035	 0	 110	 3	 1.12	 0.95;
	 84	 1	 0	 0.074	 0	 0	 1	 1.035	 0	 110	 3	 1.12	 0.95;
	 85	 1	 0	 0	 0	 0	 1	 1.035	 0	 110	 3	 1.12	 0.95;
	 86	 1	 0	 0	 0	 0	 1	 1.035	 0	 110	 3	 1.12	 0.95;
	 87	 1	 0	 0	 0	 0	 1	 1.035	 0	 110	 3	 1.12	 0.95;
	 88	 1	 0	 0	 0	 0	 1	 1.035	 0	 110	 3	 1.12	 0.95;
	 89	 1	 0	 0	 0	 0	 1	 1.035	 0	 110	 3	 1.12	 0.95;
	 90	 1	 15.242	 5.768	 0	 0	 1	 1.035	 0	 110	 3	 1.12	 0.95;
	 91	 1	 6.292	 1.679	 0	 0	 1	 1.035	 0	 110	 3	 1.12	 0.95;
	 92	 1	 0	 0	 0	 0	 1	 1.035	 0	 110	 3	 1.12	 0.95;
	 93	 2	 16.315	 18.569	 0	 0	 1	 1.035	 0	 110	 3	 1.12	 0.95;
	 94	 2	 9.612	 16.269	 0	 0	 1	 1.035	 0	 110	 3	 1.12	 0.95;
	 95	 2	 0	 0	 0	 0	 1	 1.035	 0	 110	 3	 1.12	 0.95;
	 96	 1	 0	 0	 0	 0	 1	 1.035	 0	 110	 3	 1.12	 0.95;
	 97	 1	 2.974	 1.129	 0	 0	 1	 1.035	 0	 110	 3	 1.12	 0.95;
	 98	 1	 0	 0	 0	 0	 1	 1.035	 0	 110	 3	 1.12	 0.95;
	 99	 1	 15.272	 5.055	 0	 0	 1	 1.035	 0	 110	 3	 1.12	 0.95;
	 100	 1	 13.772	 2.892	 0	 0	 1	 1.035	 0	 110	 3	 1.12	 0.95;
	 101	 1	 0	 0.075	 0	 0	 1	 1.035	 0	 110	 3	 1.12	 0.95;
	 102	 1	 0	 0.075	 0	 0	 1	 1.035	 0	 110	 3	 1.12	 0.95;
	 103	 1	 11.528	 3.031	 0	 0	 1	 1.035	 0	 110	 3	 1.12	 0.95;
	 104	 1	 0	 0	 0	 0	 1	 1.035	 0	 110	 3	 1.12	 0.95;
	 105	 1	 30.821	 9.658	 0	 0	 1	 1.035	 0	 110	 3	 1.12	 0.95;
	 106	 1	 0	 0	 0	 0	 1	 1.035	 0	 110	 3	 1.12	 0.95;
	 107	 1	 16.741	 10.166	 0	 0	 1	 1.035	 0	 110	 3	 1.12	 0.95;
	 108	 1	 0	 0	 0	 0	 1	 1.035	 0	 110	 3	 1.12	 0.95;
	 109	 1	 5.939	 1.187	 0	 0	 1	 1.035	 0	 110	 3	 1.12	 0.95;
	 110	 1	 0	 0	 0	 0	 1	 1.035	 0	 110	 3	 1.12	 0.95;
	 111	 1	 1.663	 0.36	 0	 0	 1	 1.035	 0	 110	 3	 1.12	 0.95;
	 112	 1	 0	 0	 0	 0	 1	 1.035	 0	 110	 3	 1.12	 0.95;
	 113	 1	 0.949	 0.265	 0	 0	 1	 1.035	 0	 110	 3	 1.12	 0.95;
	 114	 1	 0	 0	 0	 0	 1	 1.035	 0	 110	 3	 1.12	 0.95;
	 115	 2	 37.237	 41.301	 0	 0	 1	 1.035	 0	 110	 3	 1.12	 0.95;
	 116	 1	 9.158	 2.601	 0	 0	 1	 1.035	 0	 110	 3	 1.12	 0.95;
	 117	 1	 19.716	 6.79	 0	 0	 1	 1.035	 0	 110	 3	 1.12	 0.95;
	 118	 1	 0	 0	 0	 0	 1	 1.035	 0	 110	 3	 1.12	 0.95;
	 119	 1	 0.831	 0.358	 0	 0	 1	 1.035	 0	 110	 3	 1.12	 0.95;
	 120	 1	 0	 0	 0	 0	 1	 1.035	 0	 110	 3	 1.12	 0.95;
	 121	 1	 3.564	 1.332	 0	 0	 1	 1.035	 0	 110	 3	 1.12	 0.95;
	 122	 1	 9.629	 2.544	 0	 0	 1	 1.035	 0	 110	 3	 1.12	 0.95;
	 123	 1	 16.512	 4.407	 0	 0	 1	 1.035	 0	 110	 3	 1.12	 0.95;
	 124	 1	 0	 0	 0	 0	 1	 1.035	 0	 110	 3	 1.12	 0.95;
	 125	 1	 8.322	 2.79	 0	 0	 1	 1.035	 0	 110	 3	 1.12	 0.95;
	 126	 1	 0	 0	 0	 0	 1	 1.035	 0	 110	 3	 1.12	 0.95;
	 127	 1	 0	 0	 0	 0	 1	 1.035	 0	 110	 3	 1.12	 0.95;
	 128	 1	 15.214	 3.964	 0	 0	 1	 1.035	 0	 110	 3	 1.12	 0.95;
	 129	 1	 4.762	 1.441	 0	 0	 1	 1.035	 0	 110	 3	 1.12	 0.95;
	 130	 1	 0	 0	 0	 0	 1	 1.035	 0	 110	 3	 1.12	 0.95;
	 131	 1	 2.138	 0.737	 0	 0	 1	 1.035	 0	 110	 3	 1.12	 0.95;
	 132	 1	 0	 0	 0	 0	 1	 1.035	 0	 110	 3	 1.12	 0.95;
	 133	 1	 0	 0	 0	 0	 1	 1.035	 0	 110	 3	 1.12	 0.95;
	 134	 1	 0	 0	 0	 0	 1	 1.035	 0	 110	 3	 1.12	 0.95;
	 135	 1	 4.515	 1.278	 0	 0	 1	 1.035	 0	 110	 3	 1.12	 0.95;
	 136	 1	 12.734	 3.782	 0	 0	 1	 1.035	 0	 110	 3	 1.12	 0.95;
	 137	 1	 6.528	 1.398	 0	 0	 1	 1.035	 0	 110	 3	 1.12	 0.95;
	 138	 1	 0	 0	 0	 0	 1	 1.035	 0	 110	 3	 1.12	 0.95;
	 139	 1	 0	 0	 0	 0	 1	 1.035	 0	 110	 3	 1.12	 0.95;
	 140	 1	 2.85	 0.746	 0	 0	 1	 1.035	 0	 110	 3	 1.12	 0.95;
	 141	 1	 25.528	 8.504	 0	 0	 1	 1.035	 0	 110	 3	 1.12	 0.95;
	 142	 1	 0	 0	 0	 0	 1	 1.035	 0	 110	 3	 1.12	 0.95;
	 143	 1	 7.128	 1.073	 0	 0	 1	 1.035	 0	 110	 3	 1.12	 0.95;
	 144	 1	 0	 0	 0	 0	 1	 1.035	 0	 110	 3	 1.12	 0.95;
	 145	 1	 10.804	 3.544	 0	 0	 1	 1.035	 0	 110	 3	 1.12	 0.95;
	 146	 1	 8.318	 2.005	 0	 0	 1	 1.035	 0	 110	 3	 1.12	 0.95;
	 147	 1	 8.316	 2.471	 0	 0	 1	 1.035	 0	 110	 3	 1.12	 0.95;
	 148	 1	 6.767	 1.585	 0	 0	 1	 1.035	 0	 110	 3	 1.12	 0.95;
	 149	 1	 0	 0	 0	 0	 1	 1.035	 0	 110	 3	 1.12	 0.95;
	 150	 1	 8.547	 1.585	 0	 0	 1	 1.035	 0	 110	 3	 1.12	 0.95;
	 151	 1	 4.868	 1.772	 0	 0	 1	 1.035	 0	 110	 3	 1.12	 0.95;
	 152	 1	 0	 0	 0	 0	 1	 1.035	 0	 110	 3	 1.12	 0.95;
	 153	 1	 9.397	 2.449	 0	 0	 1	 1.035	 0	 110	 3	 1.12	 0.95;
	 154	 1	 4.75	 1.436	 0	 0	 1	 1.035	 0	 110	 3	 1.12	 0.95;
	 155	 1	 0	 0	 0	 0	 1	 1.035	 0	 110	 3	 1.12	 0.95;
	 156	 1	 0	 0	 0	 0	 1	 1.035	 0	 110	 3	 1.12	 0.95;
	 157	 1	 10.109	 1.8	 0	 0	 1	 1.035	 0	 110	 3	 1.12	 0.95;
	 158	 1	 0	 0	 0	 0	 1	 1.035	 0	 110	 3	 1.12	 0.95;
	 159	 1	 5.71	 2.017	 0	 0	 1	 1.035	 0	 110	 3	 1.12	 0.95;
	 160	 1	 4.994	 1.792	 0	 0	 1	 1.035	 0	 110	 3	 1.12	 0.95;
	 161	 1	 0	 0	 0	 0	 1	 1.035	 0	 110	 3	 1.12	 0.95;
	 162	 1	 0	 0	 0	 0	 1	 1.035	 0	 110	 3	 1.12	 0.95;
	 163	 1	 19.251	 6.248	 0	 0	 1	 1.035	 0	 110	 3	 1.12	 0.95;
	 164	 1	 0	 0	 0	 0	 1	 1.035	 0	 110	 3	 1.12	 0.95;
	 165	 1	 0	 0	 0	 0	 1	 1.035	 0	 110	 3	 1.12	 0.95;
	 166	 1	 2.732	 0.793	 0	 0	 1	 1.035	 0	 110	 3	 1.12	 0.95;
	 167	 1	 6.177	 1.539	 0	 0	 1	 1.035	 0	 110	 3	 1.12	 0.95;
	 168	 1	 3.922	 0.34	 0	 0	 1	 1.035	 0	 110	 3	 1.12	 0.95;
	 169	 1	 0	 0	 0	 0	 1	 1.035	 0	 110	 3	 1.12	 0.95;
	 170	 1	 0	 0	 0	 0	 1	 1.035	 0	 110	 3	 1.12	 0.95;
	 171	 2	 8.537	 3.068	 0	 0	 1	 1.035	 0	 110	 3	 1.12	 0.95;
	 172	 1	 13.068	 2.341	 0	 0	 1	 1.035	 0	 110	 3	 1.12	 0.95;
	 173	 1	 0	 0	 0	 0	 1	 1.035	 0	 110	 3	 1.12	 0.95;
	 174	 1	 2.85	 0.56	 0	 0	 1	 1.035	 0	 110	 3	 1.12	 0.95;
	 175	 1	 0	 0	 0	 0	 1	 1.035	 0	 110	 3	 1.12	 0.95;
	 176	 1	 11.178	 2.887	 0	 0	 1	 1.035	 0	 110	 3	 1.12	 0.95;
	 177	 1	 0	 0	 0	 0	 1	 1.035	 0	 110	 3	 1.12	 0.95;
	 178	 1	 4.757	 1.686	 0	 0	 1	 1.035	 0	 110	 3	 1.12	 0.95;
	 179	 1	 5.828	 1.737	 0	 0	 1	 1.035	 0	 110	 3	 1.12	 0.95;
	 180	 1	 0	 0	 0	 0	 1	 1.035	 0	 110	 3	 1.12	 0.95;
	 181	 1	 5.828	 1.737	 0	 0	 1	 1.035	 0	 110	 3	 1.12	 0.95;
	 182	 1	 10.576	 2.751	 0	 0	 1	 1.035	 0	 110	 3	 1.12	 0.95;
	 183	 1	 0	 0	 0	 0	 1	 1.035	 0	 110	 3	 1.12	 0.95;
	 184	 1	 12.836	 4.333	 0	 0	 1	 1.035	 0	 110	 3	 1.12	 0.95;
	 185	 1	 0	 0	 0	 0	 1	 1.035	 0	 110	 3	 1.12	 0.95;
	 186	 1	 0	 0.075	 0	 0	 1	 1.035	 0	 110	 3	 1.12	 0.95;
	 187	 1	 4.756	 1.401	 0	 0	 1	 1.035	 0	 110	 3	 1.12	 0.95;
	 188	 2	 0	-0.01	 0	 0	 1	 1.035	 0	 110	 3	 1.12	 0.95;
	 189	 1	 6.424	 1.865	 0	 0	 1	 1.035	 0	 110	 3	 1.12	 0.95;
	 190	 1	 0	 0	 0	 0	 1	 1.035	 0	 110	 3	 1.12	 0.95;
	 191	 1	 6.912	 1.335	 0	 0	 1	 1.035	 0	 110	 3	 1.12	 0.95;
	 192	 1	 9.048	 1.859	 0	 0	 1	 1.035	 0	 110	 3	 1.12	 0.95;
	 193	 1	 0	 0	 0	 0	 1	 1.035	 0	 110	 3	 1.12	 0.95;
	 194	 1	 0	 0	 0	 0	 1	 1.035	 0	 110	 3	 1.12	 0.95;
	 195	 1	 1.423	 0.372	 0	 0	 1	 1.035	 0	 110	 3	 1.12	 0.95;
	 196	 1	 0	 0	 0	 0	 1	 1.035	 0	 110	 3	 1.12	 0.95;
	 197	 1	 0.593	 0	 0	 0	 1	 1.035	 0	 110	 3	 1.12	 0.95;
	 198	 1	 0	 0	 0	 0	 1	 1.035	 0	 110	 3	 1.12	 0.95;
];

mpc_regionR1.gen = [
%	bus         Pg          Qg          Qmax        Qmin        Vg          mBase       status      Pmax        Pmin        Pc1         Pc2         Qc1min      Qc1max      Qc2min      Qc2max      ramp_agc    ramp_10     ramp_30     ramp_q      apf         
	 5	 99.5	 42.5	 90	-5	 1.03	 150	 1	 120	 79;
	 6	 99.5	 42.5	 90	-5	 1.03	 150	 1	 120	 79;
	 11	 68	 20.6	 41.2	 0	 1.035	 87.7	 1	 68	 68;
	 23	 27	 18.5	 32	 5	 1.035	 54	 1	 27	 27;
	 23	 0	 0	 32	 5	 1.035	 42.5	 0	 0	 0;
	 23	 3	 4	 7	 1	 1.035	 11.4	 1	 3	 3;
	 23	 80	 35	 110	-40	 1.035	 162.2	 1	 80	 80;
	 24	 80	 35	 110	-40	 1.035	 162.2	 1	 80	 80;
	 32	 110	 35	 110	-40	 1.035	 174.1	 1	 110	 110;
	 58	 0	 0	 42	 16.8	 1.035	 65.3	 0	 0	 0;
	 58	 0	 0	 42	 16.8	 1.035	 65.3	 0	 0	 0;
	 58	 60	 26.25	 52.5	 0	 1.035	 87.5	 1	 60	 60;
	 59	 60	 26.25	 52.5	 0	 1.035	 87.5	 1	 60	 60;
	 59	 45	 29.4	 42	 16.8	 1.035	 65.3	 1	 45	 45;
	 63	 9.999	 2	 4	 0	 1.035	 22.4	 1	 9.999	 9.999;
	 63	 9.999	 2	 4	 0	 1.035	 50.2	 1	 9.999	 9.999;
	 64	 7.01	 0.824	 1.648	 0	 1.035	 9.4	 1	 7.01	 7.01;
	 93	 0	 0	 90	-5	 1.035	 142.1	 0	 110	 79;
	 93	 99.5	 42.5	 90	-5	 1.035	 150	 1	 120	 79;
	 94	 99.5	 42.5	 90	-5	 1.035	 150	 1	 120	 79;
	 95	 0	 0	 90	-5	 1.035	 150	 0	 120	 79;
	 115	 182.5	 55	 105	 5	 1.035	 248.3	 1	 225	 140;
	 171	 4.3	 0.4505	 0.901	 0	 1.035	 8.5	 1	 4.3	 4.3;
	 188	 3.011	 0.3825	 0.765	 0	 1.035	 5.1	 1	 3.011	 3.011;
];

mpc_regionR1.branch = [
%	fbus        tbus        r           x           b           rateA       rateB       rateC       ratio       angle       status      angmin      angmax      
	 5	 3	 0.001942	 0.013926	 0.022845	 446	 446	 446	 0	 0	 1	-30	 30;
	 6	 1	 0.001715	 0.009607	 0.014239	 335	 335	 335	 0	 0	 1	-30	 30;
	 62	 1	 0.00145	 0.069831	-0.002323	 160	 160	 160	 0.9488	 0	 1	-30	 30;
	 63	 2	 0.001651	 0.067771	-0.002807	 160	 160	 160	 1.0045	 0	 1	-30	 30;
	 75	 3	 0.00145	 0.06736	-0.006582	 160	 160	 160	 0.9972	 0	 1	-30	 30;
	 74	 4	 0.001651	 0.06694	-0.002904	 160	 160	 160	 0.9952	 0	 1	-30	 30;
	 93	 5	 0.00207	 0.093599	-0.003388	 160	 160	 160	 0.9902	 0	 1	-30	 30;
	 95	 6	 0.00186	 0.092771	-0.003001	 160	 160	 160	 0.9928	 0	 1	-30	 30;
	 69	 143	 0.002727	 0.008926	 0.000886	 140	 140	 140	 0	 0	 1	-30	 30;
	 93	 69	 0.007603	 0.023471	 0.002664	 114	 114	 114	 0	 0	 1	-30	 30;
	 68	 69	 0.000331	 0.000413	 8.2e-05	 90	 90	 90	 0	 0	 1	-30	 30;
	 45	 134	 0.004298	 0.013388	 0.001488	 140	 140	 140	 0	 0	 1	-30	 30;
	 93	 45	 0.005785	 0.017686	 0.002079	 140	 140	 140	 0	 0	 1	-30	 30;
	 133	 134	 0.006033	 0.01843	 0.002183	 140	 140	 140	 0	 0	 1	-30	 30;
	 45	 44	 0.002314	 0.002893	 0.000549	 90	 90	 90	 0	 0	 1	-30	 30;
	 155	 23	 0.005041	 0.015372	 0.001774	 140	 140	 140	 0	 0	 1	-30	 30;
	 95	 155	 0.010248	 0.031405	 0.003628	 140	 140	 140	 0	 0	 1	-30	 30;
	 155	 153	 0.005124	 0.008595	 0.000908	 90	 90	 90	 0	 0	 1	-30	 30;
	 156	 24	 0.005041	 0.015372	 0.001774	 140	 140	 140	 0	 0	 1	-30	 30;
	 95	 156	 0.010248	 0.031405	 0.003628	 140	 140	 140	 0	 0	 1	-30	 30;
	 156	 154	 0.005124	 0.008512	 0.0009	 90	 90	 90	 0	 0	 1	-30	 30;
	 88	 59	 0.014628	 0.045868	 0.005084	 140	 140	 140	 0	 0	 1	-30	 30;
	 136	 88	 0.006281	 0.019752	 0.002183	 140	 140	 140	 0	 0	 1	-30	 30;
	 88	 86	 0.00438	 0.00843	 0.000879	 90	 90	 90	 0	 0	 1	-30	 30;
	 89	 15	 0.006281	 0.019504	 0.002217	 140	 140	 140	 0	 0	 1	-30	 30;
	 168	 89	 0.005041	 0.015454	 0.001793	 140	 140	 140	 0	 0	 1	-30	 30;
	 89	 87	 0.00438	 0.00843	 0.000879	 90	 90	 90	 0	 0	 1	-30	 30;
	 95	 7	 0.012479	 0.045207	 0.00537	 114	 114	 114	 0	 0	 1	-30	 30;
	 94	 8	 0.012479	 0.045207	 0.00537	 114	 114	 114	 0	 0	 1	-30	 30;
	 110	 32	 0.002231	 0.008347	 0.000983	 162	 162	 162	 0	 0	 1	-30	 30;
	 27	 33	 0.004132	 0.01562	 0.001878	 162	 162	 162	 0	 0	 1	-30	 30;
	 95	 27	 0.004876	 0.016446	 0.00198	 140	 140	 140	 0	 0	 1	-30	 30;
	 27	 26	 0.00124	 0.004463	 0.000554	 162	 162	 162	 0	 0	 1	-30	 30;
	 105	 75	 0.005537	 0.017355	 0.001919	 140	 140	 140	 0	 0	 1	-30	 30;
	 123	 177	 0.003967	 0.011983	 0.001421	 140	 140	 140	 0	 0	 1	-30	 30;
	 116	 171	 0.002397	 0.007355	 0.000852	 140	 140	 140	 0	 0	 1	-30	 30;
	 65	 74	 0.003719	 0.011901	 0.001251	 140	 140	 140	 0	 0	 1	-30	 30;
	 46	 39	 0.005455	 0.017107	 0.001917	 140	 140	 140	 0	 0	 1	-30	 30;
	 193	 121	 0.004793	 0.014628	 0.001774	 114	 114	 114	 0	 0	 1	-30	 30;
	 28	 193	 0.001901	 0.006116	 0.000646	 114	 114	 114	 0	 0	 1	-30	 30;
	 191	 193	 8.3e-05	 0.000165	 1.7e-05	 114	 114	 114	 0	 0	 1	-30	 30;
	 28	 140	 0.001405	 0.004132	 0.000426	 114	 114	 114	 0	 0	 1	-30	 30;
	 17	 100	 0.006777	 0.021984	 0.002297	 114	 114	 114	 0	 0	 1	-30	 30;
	 52	 23	 0.001736	 0.005289	 0.000617	 57	 57	 57	 0	 0	 1	-30	 30;
	 74	 181	 0.003306	 0.010744	 0.001101	 140	 140	 140	 0	 0	 1	-30	 30;
	 74	 38	 0.001405	 0.004463	 0.000469	 114	 114	 114	 0	 0	 1	-30	 30;
	 175	 170	 0.003306	 0.010413	 0.001147	 140	 140	 140	 0	 0	 1	-30	 30;
	 54	 127	 0.011983	 0.037107	 0.004211	 140	 140	 140	 0	 0	 1	-30	 30;
	 103	 23	 0.004545	 0.013967	 0.001619	 140	 140	 140	 0	 0	 1	-30	 30;
	 139	 15	 0.005702	 0.015041	 0.001646	 120	 120	 120	 0	 0	 1	-30	 30;
	 91	 15	 0.001322	 0.002645	 0.000237	 57	 57	 57	 0	 0	 1	-30	 30;
	 92	 16	 0.001322	 0.002645	 0.000237	 57	 57	 57	 0	 0	 1	-30	 30;
	 186	 146	 0.002893	 0.007025	 0.000779	 120	 120	 120	 0	 0	 1	-30	 30;
	 187	 147	 0.002893	 0.007025	 0.000779	 120	 120	 120	 0	 0	 1	-30	 30;
	 186	 151	 0.002397	 0.007355	 0.000857	 140	 140	 140	 0	 0	 1	-30	 30;
	 74	 32	 0.003141	 0.013306	 0.001379	 162	 162	 162	 0	 0	 1	-30	 30;
	 101	 141	 0.003141	 0.021405	 0.002413	 114	 114	 114	 0	 0	 1	-30	 30;
	 24	 81	 0.006446	 0.020661	 0.002164	 114	 114	 114	 0	 0	 1	-30	 30;
	 186	 100	 0.00405	 0.012397	 0.00143	 114	 114	 114	 0	 0	 1	-30	 30;
	 75	 179	 0.001901	 0.004628	 0.000895	 140	 140	 140	 0	 0	 1	-30	 30;
	 180	 74	 0.001405	 0.004628	 0.000489	 140	 140	 140	 0	 0	 1	-30	 30;
	 16	 180	 0.008099	 0.022645	 0.002439	 120	 120	 120	 0	 0	 1	-30	 30;
	 178	 180	 0.000496	 0.00124	 0.000191	 140	 140	 140	 0	 0	 1	-30	 30;
	 75	 174	 0.001901	 0.005868	 0.000658	 140	 140	 140	 0	 0	 1	-30	 30;
	 196	 187	 0.004215	 0.009835	 0.001217	 120	 120	 120	 0	 0	 1	-30	 30;
	 53	 196	 0.002066	 0.00562	 0.000593	 120	 120	 120	 0	 0	 1	-30	 30;
	 195	 196	 0.000661	 0.002314	 0.00022	 120	 120	 120	 0	 0	 1	-30	 30;
	 40	 75	 0.001653	 0.005289	 0.000557	 120	 120	 120	 0	 0	 1	-30	 30;
	 167	 145	 0.006529	 0.023884	 0.002338	 105	 105	 105	 0	 0	 1	-30	 30;
	 186	 41	 0.003141	 0.007769	 0.000879	 120	 120	 120	 0	 0	 1	-30	 30;
	 152	 144	 0.008099	 0.051653	 0.005365	 140	 140	 140	 0	 0	 1	-30	 30;
	 187	 152	 0.007686	 0.023967	 0.002698	 114	 114	 114	 0	 0	 1	-30	 30;
	 150	 152	 0.002231	 0.007438	 0.000726	 140	 140	 140	 0	 0	 1	-30	 30;
	 114	 58	 0.009339	 0.031901	 0.003243	 140	 140	 140	 0	 0	 1	-30	 30;
	 116	 114	 0.002149	 0.006777	 0.000772	 140	 140	 140	 0	 0	 1	-30	 30;
	 114	 113	 0	 8.3e-05	 1e-05	 140	 140	 140	 0	 0	 1	-30	 30;
	 107	 58	 0.005041	 0.016364	 0.001711	 140	 140	 140	 0	 0	 1	-30	 30;
	 165	 93	 0.005785	 0.014463	 0.001636	 120	 120	 120	 0	 0	 1	-30	 30;
	 30	 85	 0.006198	 0.019504	 0.00213	 140	 140	 140	 0	 0	 1	-30	 30;
	 71	 58	 0.009587	 0.030826	 0.003265	 140	 140	 140	 0	 0	 1	-30	 30;
	 117	 58	 0.001405	 0.004298	 0.000472	 140	 140	 140	 0	 0	 1	-30	 30;
	 169	 82	 0.008182	 0.025537	 0.002863	 140	 140	 140	 0	 0	 1	-30	 30;
	 149	 59	 0.004793	 0.014711	 0.001706	 140	 140	 140	 0	 0	 1	-30	 30;
	 157	 59	 0.005041	 0.015537	 0.001801	 140	 140	 140	 0	 0	 1	-30	 30;
	 173	 11	 0.004132	 0.01281	 0.00144	 140	 140	 140	 0	 0	 1	-30	 30;
	 163	 11	 0.003471	 0.011157	 0.001198	 140	 140	 140	 0	 0	 1	-30	 30;
	 94	 50	 0.004628	 0.014297	 0.001619	 140	 140	 140	 0	 0	 1	-30	 30;
	 162	 49	 0.004711	 0.014297	 0.001699	 140	 140	 140	 0	 0	 1	-30	 30;
	 94	 162	 0.003554	 0.010992	 0.001261	 140	 140	 140	 0	 0	 1	-30	 30;
	 162	 160	 0.00157	 0.005372	 0.00052	 140	 140	 140	 0	 0	 1	-30	 30;
	 130	 12	 0.002479	 0.007686	 0.000883	 140	 140	 140	 0	 0	 1	-30	 30;
	 94	 130	 0.006116	 0.018926	 0.002142	 140	 140	 140	 0	 0	 1	-30	 30;
	 130	 129	 0.002066	 0.003802	 0.000784	 120	 120	 120	 0	 0	 1	-30	 30;
	 97	 94	 0.002397	 0.007355	 0.000828	 140	 140	 140	 0	 0	 1	-30	 30;
	 31	 116	 0.002397	 0.007769	 0.000823	 140	 140	 140	 0	 0	 1	-30	 30;
	 48	 132	 0.003719	 0.009008	 0.001363	 120	 120	 120	 0	 0	 1	-30	 30;
	 125	 115	 0.006281	 0.020083	 0.002139	 140	 140	 140	 0	 0	 1	-30	 30;
	 79	 70	 8.3e-05	 0.000248	 2.2e-05	 140	 140	 140	 0	 0	 1	-30	 30;
	 120	 79	 0.007603	 0.019587	 0.002091	 120	 120	 120	 0	 0	 1	-30	 30;
	 115	 120	 0.003141	 0.00843	 0.000857	 120	 120	 120	 0	 0	 1	-30	 30;
	 78	 79	 0.004545	 0.008512	 0.000927	 90	 90	 90	 0	 0	 1	-30	 30;
	 119	 120	 0.000496	 0.001322	 0.000133	 120	 120	 120	 0	 0	 1	-30	 30;
	 77	 70	 0.002562	 0.006777	 0.000944	 120	 120	 120	 0	 0	 1	-30	 30;
	 111	 63	 0.001653	 0.004959	 0.00059	 140	 140	 140	 0	 0	 1	-30	 30;
	 61	 71	 0.003223	 0.009752	 0.001159	 140	 140	 140	 0	 0	 1	-30	 30;
	 21	 61	 0.003058	 0.009421	 0.001058	 140	 140	 140	 0	 0	 1	-30	 30;
	 60	 61	 0	 8.3e-05	 1.2e-05	 140	 140	 140	 0	 0	 1	-30	 30;
	 63	 131	 0.001405	 0.004298	 0.000503	 140	 140	 140	 0	 0	 1	-30	 30;
	 184	 98	 0.010744	 0.032727	 0.003836	 140	 140	 140	 0	 0	 1	-30	 30;
	 70	 118	 0.008264	 0.026612	 0.002807	 140	 140	 140	 0	 0	 1	-30	 30;
	 9	 59	 0.006033	 0.020496	 0.002176	 140	 140	 140	 0	 0	 1	-30	 30;
	 10	 20	 0.003058	 0.010661	 0.001171	 140	 140	 140	 0	 0	 1	-30	 30;
	 57	 19	 0.006529	 0.020909	 0.002243	 140	 140	 140	 0	 0	 1	-30	 30;
	 83	 57	 0.002397	 0.007355	 0.000876	 140	 140	 140	 0	 0	 1	-30	 30;
	 55	 57	 0.008678	 0.02719	 0.00303	 140	 140	 140	 0	 0	 1	-30	 30;
	 56	 57	 0.008347	 0.026116	 0.002904	 140	 140	 140	 0	 0	 0	-30	 30;
	 164	 126	 0.001488	 0.004628	 0.00053	 140	 140	 140	 0	 0	 1	-30	 30;
	 124	 115	 0.001983	 0.006116	 0.000726	 140	 140	 140	 0	 0	 1	-30	 30;
	 161	 22	 0.00438	 0.014545	 0.00144	 140	 140	 140	 0	 0	 1	-30	 30;
	 51	 161	 0.000661	 0.001983	 0.000232	 140	 140	 140	 0	 0	 1	-30	 30;
	 159	 161	 0.000165	 0.000413	 5.1e-05	 140	 140	 140	 0	 0	 1	-30	 30;
	 84	 12	 0.004628	 0.014545	 0.001592	 140	 140	 140	 0	 0	 1	-30	 30;
	 35	 12	 0.000826	 0.002727	 0.000257	 140	 140	 140	 0	 0	 1	-30	 30;
	 106	 35	 0.002562	 0.008595	 0.00082	 140	 140	 140	 0	 0	 1	-30	 30;
	 34	 35	 0.000992	 0.003058	 0.000358	 140	 140	 140	 0	 0	 1	-30	 30;
	 94	 172	 0.004959	 0.015289	 0.001769	 140	 140	 140	 0	 0	 1	-30	 30;
	 71	 25	 0.00719	 0.017851	 0.002134	 120	 120	 120	 0	 0	 1	-30	 30;
	 115	 108	 0.008017	 0.027769	 0.002802	 140	 140	 140	 0	 0	 1	-30	 30;
	 109	 95	 0.007686	 0.027273	 0.003178	 140	 140	 140	 0	 0	 1	-30	 30;
	 112	 76	 0.004876	 0.009256	 0.001801	 120	 120	 120	 0	 0	 1	-30	 30;
	 80	 99	 0.001983	 0.006364	 0.000668	 114	 114	 114	 0	 0	 1	-30	 30;
	 142	 96	 0.004298	 0.030083	 0.003228	 232	 232	 232	 0	 0	 1	-30	 30;
	 15	 42	 0.003471	 0.011074	 0.001159	 140	 140	 140	 0	 0	 1	-30	 30;
	 16	 43	 0.003388	 0.011074	 0.001154	 140	 140	 140	 0	 0	 1	-30	 30;
	 198	 72	 0.004711	 0.014463	 0.00165	 140	 140	 140	 0	 0	 1	-30	 30;
	 128	 24	 0.004959	 0.015124	 0.001769	 140	 140	 140	 0	 0	 1	-30	 30;
	 188	 73	 0.004132	 0.012975	 0.00144	 140	 140	 140	 0	 0	 1	-30	 30;
	 135	 16	 0.006364	 0.020165	 0.002188	 114	 114	 114	 0	 0	 1	-30	 30;
	 194	 29	 0.001901	 0.006198	 0.000651	 114	 114	 114	 0	 0	 1	-30	 30;
	 138	 194	 0.003802	 0.011983	 0.001283	 140	 140	 140	 0	 0	 1	-30	 30;
	 16	 138	 0.002645	 0.008182	 0.000946	 114	 114	 114	 0	 0	 1	-30	 30;
	 192	 194	 8.3e-05	 0.000165	 1.7e-05	 140	 140	 140	 0	 0	 1	-30	 30;
	 138	 137	 0.00124	 0.003802	 0.000445	 57	 57	 57	 0	 0	 1	-30	 30;
	 99	 122	 0.002397	 0.007438	 0.000859	 114	 114	 114	 0	 0	 1	-30	 30;
	 183	 18	 0.004132	 0.013306	 0.001411	 114	 114	 114	 0	 0	 1	-30	 30;
	 23	 183	 0.007107	 0.023058	 0.002403	 140	 140	 140	 0	 0	 1	-30	 30;
	 182	 183	 0.000744	 0.002397	 0.000264	 114	 114	 114	 0	 0	 1	-30	 30;
	 190	 33	 0.000909	 0.00281	 0.000319	 114	 114	 114	 0	 0	 1	-30	 30;
	 74	 33	 0.003141	 0.013306	 0.001379	 162	 162	 162	 0	 0	 1	-30	 30;
	 13	 74	 0.000413	 0.00124	 0.000131	 140	 140	 140	 0	 0	 1	-30	 30;
	 14	 75	 0.000413	 0.001322	 0.000135	 140	 140	 140	 0	 0	 1	-30	 30;
	 67	 32	 0.000661	 0.002562	 0.0003	 114	 114	 114	 0	 0	 1	-30	 30;
	 66	 47	 0.003471	 0.010661	 0.001246	 140	 140	 140	 0	 0	 1	-30	 30;
	 166	 66	 0.003636	 0.013388	 0.001203	 140	 140	 140	 0	 0	 1	-30	 30;
	 64	 66	 0	 0.000826	 7e-06	 140	 140	 140	 0	 0	 1	-30	 30;
	 176	 75	 0.004463	 0.012893	 0.001735	 140	 140	 140	 0	 0	 1	-30	 30;
	 36	 32	 0.000661	 0.002149	 0.000215	 114	 114	 114	 0	 0	 1	-30	 30;
	 37	 33	 0.000661	 0.002066	 0.00021	 114	 114	 114	 0	 0	 1	-30	 30;
	 74	 29	 0.003554	 0.011405	 0.001183	 114	 114	 114	 0	 0	 1	-30	 30;
	 90	 186	 0.001488	 0.004959	 0.000469	 114	 114	 114	 0	 0	 1	-30	 30;
	 197	 104	 0.000992	 0.003141	 0.000365	 114	 114	 114	 0	 0	 1	-30	 30;
	 15	 102	 0.004876	 0.01719	 0.001917	 114	 114	 114	 0	 0	 1	-30	 30;
	 183	 81	 0.009091	 0.029752	 0.003151	 114	 114	 114	 0	 0	 0	-30	 30;
	 182	 183	 8.3e-05	 0.000826	 0.000169	 114	 114	 114	 0	 0	 0	-30	 30;
	 2	 1	 2.1e-05	 0.000207	 0	 876	 876	 876	 0	 0	 1	-30	 30;
	 4	 3	 2.1e-05	 0.000207	 0	 876	 876	 876	 0	 0	 1	-30	 30;
	 6	 5	 2.1e-05	 0.000207	 0	 876	 876	 876	 0	 0	 1	-30	 30;
	 10	 9	 8.3e-05	 0.000826	 0	 438	 438	 438	 0	 0	 1	-30	 30;
	 12	 11	 8.3e-05	 0.000826	 0	 438	 438	 438	 0	 0	 0	-30	 30;
	 16	 15	 8.3e-05	 0.000826	 0	 438	 438	 438	 0	 0	 0	-30	 30;
	 18	 17	 8.3e-05	 0.000826	 0	 438	 438	 438	 0	 0	 1	-30	 30;
	 20	 19	 8.3e-05	 0.000826	 0	 438	 438	 438	 0	 0	 1	-30	 30;
	 22	 21	 8.3e-05	 0.000826	 0	 438	 438	 438	 0	 0	 1	-30	 30;
	 24	 23	 8.3e-05	 0.000826	 0	 438	 438	 438	 0	 0	 0	-30	 30;
	 29	 28	 8.3e-05	 0.000826	 0	 438	 438	 438	 0	 0	 0	-30	 30;
	 31	 30	 8.3e-05	 0.000826	 0	 438	 438	 438	 0	 0	 1	-30	 30;
	 33	 32	 8.3e-05	 0.000826	 0	 438	 438	 438	 0	 0	 1	-30	 30;
	 40	 39	 8.3e-05	 0.000826	 0	 438	 438	 438	 0	 0	 1	-30	 30;
	 43	 42	 0	 0.0001	 0	 438	 438	 438	 0	 0	 0	-30	 30;
	 47	 46	 8.3e-05	 0.000826	 0	 438	 438	 438	 0	 0	 1	-30	 30;
	 49	 48	 8.3e-05	 0.000826	 0	 438	 438	 438	 0	 0	 1	-30	 30;
	 51	 50	 8.3e-05	 0.000826	 0	 438	 438	 438	 0	 0	 1	-30	 30;
	 54	 53	 8.3e-05	 0.000826	 0	 438	 438	 438	 0	 0	 1	-30	 30;
	 56	 55	 8.3e-05	 0.000826	 0	 438	 438	 438	 0	 0	 1	-30	 30;
	 59	 58	 8.3e-05	 0.000826	 0	 438	 438	 438	 0	 0	 0	-30	 30;
	 63	 62	 8.3e-05	 0.000826	 0	 438	 438	 438	 0	 0	 0	-30	 30;
	 71	 70	 8.3e-05	 0.000826	 0	 438	 438	 438	 0	 0	 0	-30	 30;
	 73	 72	 8.3e-05	 0.000826	 0	 438	 438	 438	 0	 0	 1	-30	 30;
	 75	 74	 8.3e-05	 0.000826	 0	 438	 438	 438	 0	 0	 0	-30	 30;
	 77	 76	 8.3e-05	 0.000826	 0	 438	 438	 438	 0	 0	 1	-30	 30;
	 81	 80	 8.3e-05	 0.000826	 0	 438	 438	 438	 0	 0	 1	-30	 30;
	 83	 82	 8.3e-05	 0.000826	 0	 438	 438	 438	 0	 0	 1	-30	 30;
	 85	 84	 8.3e-05	 0.000826	 0	 438	 438	 438	 0	 0	 1	-30	 30;
	 87	 86	 0	 0.0001	 0	 438	 438	 438	 0	 0	 0	-30	 30;
	 94	 93	 8.3e-05	 0.000826	 0	 438	 438	 438	 0	 0	 0	-30	 30;
	 95	 94	 8.3e-05	 0.000826	 0	 438	 438	 438	 0	 0	 0	-30	 30;
	 93	 95	 8.3e-05	 0.000826	 0	 438	 438	 438	 0	 0	 0	-30	 30;
	 98	 97	 8.3e-05	 0.000826	 0	 438	 438	 438	 0	 0	 1	-30	 30;
	 100	 99	 8.3e-05	 0.000826	 0	 438	 438	 438	 0	 0	 1	-30	 30;
	 102	 101	 8.3e-05	 0.000826	 0	 438	 438	 438	 0	 0	 1	-30	 30;
...
];

mpc_regionR1.gencost = [
%	2           startup     shutdown    n           c(n-1)...c0 
	 2	 0	 0	 3	 0	 94.09	 0;
	 2	 0	 0	 3	 0	 94.09	 0;
	 2	 0	 0	 3	 0	 0	 0;
	 2	 0	 0	 3	 0	 0	 0;
	 2	 0	 0	 3	 0	 0	 0;
	 2	 0	 0	 3	 0	 0	 0;
	 2	 0	 0	 3	 0	 0	 0;
	 2	 0	 0	 3	 0	 0	 0;
	 2	 0	 0	 3	 0	 0	 0;
	 2	 0	 0	 3	 0	 0	 0;
	 2	 0	 0	 3	 0	 0	 0;
	 2	 0	 0	 3	 0	 0	 0;
	 2	 0	 0	 3	 0	 0	 0;
	 2	 0	 0	 3	 0	 0	 0;
	 2	 0	 0	 3	 0	 0	 0;
	 2	 0	 0	 3	 0	 0	 0;
	 2	 0	 0	 3	 0	 0	 0;
	 2	 0	 0	 3	 0	 94.09	 0;
	 2	 0	 0	 3	 0	 94.09	 0;
	 2	 0	 0	 3	 0	 94.09	 0;
	 2	 0	 0	 3	 0	 94.09	 0;
	 2	 0	 0	 3	 0	 95.31	 0;
	 2	 0	 0	 3	 0	 0	 0;
	 2	 0	 0	 3	 0	 0	 0;
];


% -------------------- mpc_regionR2 --------------------

mpc_regionR2.version = '2';
mpc_regionR2.baseMVA = 100.0000;
mpc_regionR2.bus = [
%	bus_i       type        Pd          Qd          Gs          Bs          area        Vm          Va          baseKV      zone        Vmax        Vmin        
	 1	 1	 0	 0	 0	 0	 1	 1.03	 0	 220	 3	 1.11	 0.95;
	 2	 1	 0	 0	 0	 0	 1	 1.03	 0	 220	 3	 1.11	 0.95;
	 3	 1	 0	 0	 0	 0	 1	 1.03	 0	 220	 3	 1.11	 0.95;
	 4	 1	 0	 0	 0	 0	 1	 1.03	 0	 220	 3	 1.11	 0.95;
	 5	 2	 14	 40	 0	 0	 1	 1.03	 0	 220	 3	 1.11	 0.95;
	 6	 2	 14	 40	 0	 0	 1	 1.03	 0	 220	 3	 1.11	 0.95;
	 7	 1	 0	 0	 0	 0	 1	 1.03	 0	 220	 3	 1.11	 0.95;
	 8	 1	 0	 0	 0	 0	 1	 1.03	 0	 220	 3	 1.11	 0.95;
	 9	 2	 18.343	 21.865	 0	 0	 1	 1.03	 0	 220	 3	 1.11	 0.95;
	 10	 2	 28.469	 34.292	 0	 0	 1	 1.03	 0	 220	 3	 1.11	 0.95;
	 11	 1	 0	 0	 0	 0	 1	 1.035	 0	 110	 3	 1.12	 0.95;
	 12	 1	 0	 0	 0	 0	 1	 1.035	 0	 110	 3	 1.12	 0.95;
	 13	 2	 9.487	 2.788	 0	 0	 1	 1.035	 0	 110	 3	 1.12	 0.95;
	 14	 1	 8.31	 3.731	 0	 0	 1	 1.035	 0	 110	 3	 1.12	 0.95;
	 15	 1	 19.062	 4.94	 0	 0	 1	 1.035	 0	 110	 3	 1.12	 0.95;
	 16	 1	 0	 0	 0	 0	 1	 1.035	 0	 110	 3	 1.12	 0.95;
	 17	 1	 0	 0	 0	 0	 1	 1.035	 0	 110	 3	 1.12	 0.95;
	 18	 1	 16.146	 6.808	 0	 0	 1	 1.035	 0	 110	 3	 1.12	 0.95;
	 19	 1	 2.967	 0	 0	 0	 1	 1.035	 0	 110	 3	 1.12	 0.95;
	 20	 1	 7.371	 1.955	 0	 0	 1	 1.035	 0	 110	 3	 1.12	 0.95;
	 21	 1	 0	 0	 0	 0	 1	 1.035	 0	 110	 3	 1.12	 0.95;
	 22	 1	 0	 0	 0	 0	 1	 1.035	 0	 110	 3	 1.12	 0.95;
	 23	 1	 0	 0	 0	 0	 1	 1.035	 0	 110	 3	 1.12	 0.95;
	 24	 1	 0.95	 0.56	 0	 0	 1	 1.035	 0	 110	 3	 1.12	 0.95;
	 25	 1	 0	 0	 0	 0	 1	 1.035	 0	 110	 3	 1.12	 0.95;
	 26	 1	 13.06	 2.611	 0	 0	 1	 1.035	 0	 110	 3	 1.12	 0.95;
	 27	 1	 6.529	 1.306	 0	 0	 1	 1.035	 0	 110	 3	 1.12	 0.95;
	 28	 1	 0	 0	 0	 0	 1	 1.035	 0	 110	 3	 1.12	 0.95;
	 29	 1	 4.405	 1.321	 0	 0	 1	 1.035	 0	 110	 3	 1.12	 0.95;
	 30	 1	 0	 0	 0	 0	 1	 1.035	 0	 110	 3	 1.12	 0.95;
	 31	 1	 3.562	 2.238	 0	 0	 1	 1.035	 0	 110	 3	 1.12	 0.95;
	 32	 1	 0	 0	 0	 0	 1	 1.035	 0	 110	 3	 1.12	 0.95;
	 33	 1	 22.557	 10.259	 0	 0	 1	 1.035	 0	 110	 3	 1.12	 0.95;
	 34	 2	 0	-0.01	 0	 0	 1	 1.035	 0	 110	 3	 1.12	 0.95;
	 35	 2	 19.58	 10.193	 0	 0	 1	 1.035	 0	 110	 3	 1.12	 0.95;
	 36	 2	 0	 0	 0	 0	 1	 1.035	 0	 110	 3	 1.12	 0.95;
	 37	 1	 5.818	 1.585	 0	 0	 1	 1.035	 0	 110	 3	 1.12	 0.95;
	 38	 1	 0	 0	 0	 0	 1	 1.035	 0	 110	 3	 1.12	 0.95;
	 39	 1	 0.236	 0	 0	 0	 1	 1.035	 0	 110	 3	 1.12	 0.95;
	 40	 1	 0	 0	 0	 0	 1	 1.035	 0	 110	 3	 1.12	 0.95;
	 41	 1	 0.594	 0.466	 0	 0	 1	 1.035	 0	 110	 3	 1.12	 0.95;
	 42	 1	 0	 0	 0	 0	 1	 1.035	 0	 110	 3	 1.12	 0.95;
	 43	 1	 0	 0	 0	 0	 1	 1.035	 0	 110	 3	 1.12	 0.95;
	 44	 1	 5.461	 0.839	 0	 0	 1	 1.035	 0	 110	 3	 1.12	 0.95;
	 45	 1	 6.529	 1.026	 0	 0	 1	 1.035	 0	 110	 3	 1.12	 0.95;
	 46	 1	 4.749	 1.865	 0	 0	 1	 1.035	 0	 110	 3	 1.12	 0.95;
	 47	 1	 0	 0	 0	 0	 1	 1.035	 0	 110	 3	 1.12	 0.95;
	 48	 1	 0	 0	 0	 0	 1	 1.035	 0	 110	 3	 1.12	 0.95;
	 49	 1	 0	 0	 0	 0	 1	 1.035	 0	 110	 3	 1.12	 0.95;
	 50	 1	 0	 0	 0	 0	 1	 1.035	 0	 110	 3	 1.12	 0.95;
	 51	 1	 0	 0	 0	 0	 1	 1.035	 0	 110	 3	 1.12	 0.95;
	 52	 1	 0	 0	 0	 0	 1	 1.035	 0	 110	 3	 1.12	 0.95;
	 53	 1	 17.239	 2.658	 0	 0	 1	 1.035	 0	 110	 3	 1.12	 0.95;
	 54	 1	 0	 0	 0	 0	 1	 1.035	 0	 110	 3	 1.12	 0.95;
	 55	 1	 0	 0	 0	 0	 1	 1.035	 0	 110	 3	 1.12	 0.95;
	 56	 2	 2.612	 1.865	 0	 0	 1	 1.035	 0	 110	 3	 1.12	 0.95;
	 57	 2	 7.071	 9.645	 0	 0	 1	 1.035	 0	 110	 3	 1.12	 0.95;
	 58	 2	 0	 0	 0	 0	 1	 1.035	 0	 110	 3	 1.12	 0.95;
	 59	 1	 18.5	 1.743	 0	 0	 1	 1.035	 0	 110	 3	 1.12	 0.95;
	 60	 1	 0	 0	 0	 0	 1	 1.035	 0	 110	 3	 1.12	 0.95;
	 61	 1	 32.054	 9.325	 0	 0	 1	 1.035	 0	 110	 3	 1.12	 0.95;
	 62	 1	 0	 0	 0	 0	 1	 1.035	 0	 110	 3	 1.12	 0.95;
	 63	 1	 103.286	 29.843	 0	 0	 1	 1.035	 0	 110	 3	 1.12	 0.95;
	 64	 1	 0	 0	 0	 0	 1	 1.035	 0	 110	 3	 1.12	 0.95;
	 65	 1	 0	 0	 0	 0	 1	 1.035	 0	 110	 3	 1.12	 0.95;
	 66	 1	 0	 0	 0	 0	 1	 1.035	 0	 110	 3	 1.12	 0.95;
	 67	 1	 3.681	 1.119	 0	 0	 1	 1.035	 0	 110	 3	 1.12	 0.95;
	 68	 1	 0.356	 0.093	 0	 0	 1	 1.035	 0	 110	 3	 1.12	 0.95;
	 69	 1	 15.434	 6.528	 0	 0	 1	 1.035	 0	 110	 3	 1.12	 0.95;
	 70	 1	 13.06	 3.731	 0	 0	 1	 1.035	 0	 110	 3	 1.12	 0.95;
	 71	 1	 17.808	 12.777	 0	 0	 1	 1.035	 0	 110	 3	 1.12	 0.95;
	 72	 1	 0	 0	 0	 0	 1	 1.035	 0	 110	 3	 1.12	 0.95;
	 73	 1	 0	 0	 0	 0	 1	 1.035	 0	 110	 3	 1.12	 0.95;
	 74	 1	 4.751	 1.073	 0	 0	 1	 1.035	 0	 110	 3	 1.12	 0.95;
	 75	 1	 0.594	 0.14	 0	 0	 1	 1.035	 0	 110	 3	 1.12	 0.95;
	 76	 1	 0	 0	 0	 0	 1	 1.035	 0	 110	 3	 1.12	 0.95;
	 77	 1	 0	 0	 0	 0	 1	 1.035	 0	 110	 3	 1.12	 0.95;
	 78	 1	 1.663	 0.466	 0	 0	 1	 1.035	 0	 110	 3	 1.12	 0.95;
	 79	 1	 6.529	 1.026	 0	 0	 1	 1.035	 0	 110	 3	 1.12	 0.95;
	 80	 1	 0	 0	 0	 0	 1	 1.035	 0	 110	 3	 1.12	 0.95;
	 81	 1	 0	 0	 0	 0	 1	 1.035	 0	 110	 3	 1.12	 0.95;
	 82	 1	 9.524	 0.484	 0	 0	 1	 1.035	 0	 110	 3	 1.12	 0.95;
	 83	 1	 0	 0	 0	 0	 1	 1.035	 0	 110	 3	 1.12	 0.95;
	 84	 1	 3.442	 0.839	 0	 0	 1	 1.035	 0	 110	 3	 1.12	 0.95;
	 85	 1	 3.799	 0	 0	 0	 1	 1.035	 0	 110	 3	 1.12	 0.95;
	 86	 1	 11.634	 5.503	 0	 0	 1	 1.035	 0	 110	 3	 1.12	 0.95;
	 87	 1	 0	 0	 0	 0	 1	 1.035	 0	 110	 3	 1.12	 0.95;
	 88	 2	 20.186	 5.192	 0	 0	 1	 1.035	 0	 110	 3	 1.12	 0.95;
	 89	 1	 0	 0	 0	 0	 1	 1.035	 0	 110	 3	 1.12	 0.95;
	 90	 1	 6.055	 9.699	 0	 0	 1	 1.035	 0	 110	 3	 1.12	 0.95;
	 91	 1	 8.429	 4.943	 0	 0	 1	 1.035	 0	 110	 3	 1.12	 0.95;
	 92	 1	 11.991	 3.824	 0	 0	 1	 1.035	 0	 110	 3	 1.12	 0.95;
	 93	 1	 0	 0	 0	 0	 1	 1.035	 0	 110	 3	 1.12	 0.95;
	 94	 1	 7.123	 1.492	 0	 0	 1	 1.035	 0	 110	 3	 1.12	 0.95;
	 95	 1	 6.173	 1.492	 0	 0	 1	 1.035	 0	 110	 3	 1.12	 0.95;
	 96	 1	 1.187	 0.187	 0	 0	 1	 1.035	 0	 110	 3	 1.12	 0.95;
	 97	 1	 0	 0	 0	 0	 1	 1.035	 0	 110	 3	 1.12	 0.95;
	 98	 1	 0	 0	 0	 0	 1	 1.035	 0	 110	 3	 1.12	 0.95;
	 99	 1	 0	 0	 0	 0	 1	 1.035	 0	 110	 3	 1.12	 0.95;
	 100	 1	 5.359	 1.197	 0	 0	 1	 1.035	 0	 110	 3	 1.12	 0.95;
	 101	 1	 4.756	 0.833	 0	 0	 1	 1.035	 0	 110	 3	 1.12	 0.95;
	 102	 1	 0	 0	 0	 0	 1	 1.035	 0	 110	 3	 1.12	 0.95;
	 103	 2	 30.247	 48.529	 0	 0	 1	 1.035	 0	 110	 3	 1.12	 0.95;
	 104	 1	 7.736	 1.759	 0	 0	 1	 1.035	 0	 110	 3	 1.12	 0.95;
	 105	 1	 4.756	 1.211	 0	 0	 1	 1.035	 0	 110	 3	 1.12	 0.95;
	 106	 1	 0	 0	 0	 0	 1	 1.035	 0	 110	 3	 1.12	 0.95;
	 107	 1	 0	 0	 0	 0	 1	 1.035	 0	 110	 3	 1.12	 0.95;
	 108	 2	 9.894	 0.259	 0	 0	 1	 1.035	 0	 110	 3	 1.12	 0.95;
	 109	 1	 0	 0	 0	 0	 1	 1.035	 0	 110	 3	 1.12	 0.95;
	 110	 2	 2.363	 0.455	 0	 0	 1	 1.035	 0	 110	 3	 1.12	 0.95;
	 111	 2	 20.173	 8.85	 0	 0	 1	 1.035	 0	 110	 3	 1.12	 0.95;
	 112	 2	 35.606	 13.979	 0	 0	 1	 1.035	 0	 110	 3	 1.12	 0.95;
	 113	 2	 7.113	-0.01	 0	 0	 1	 1.035	 0	 110	 3	 1.12	 0.95;
	 114	 1	 0	 0	 0	 0	 1	 1.035	 0	 110	 3	 1.12	 0.95;
	 115	 1	 3.09	 0.68	 0	 0	 1	 1.035	 0	 110	 3	 1.12	 0.95;
	 116	 1	 1.782	 0.276	 0	 0	 1	 1.035	 0	 110	 3	 1.12	 0.95;
	 117	 1	 0	 0	 0	 0	 1	 1.035	 0	 110	 3	 1.12	 0.95;
	 118	 1	 0	 0	 0	 0	 1	 1.035	 0	 110	 3	 1.12	 0.95;
	 119	 1	 13.134	 4.838	 0	 0	 1	 1.035	 0	 110	 3	 1.12	 0.95;
	 120	 1	 11.93	 4.074	 0	 0	 1	 1.035	 0	 110	 3	 1.12	 0.95;
	 121	 1	 0	 0	 0	 0	 1	 1.035	 0	 110	 3	 1.12	 0.95;
	 122	 1	 0	 0	 0	 0	 1	 1.035	 0	 110	 3	 1.12	 0.95;
	 123	 1	 8.323	 2.608	 0	 0	 1	 1.035	 0	 110	 3	 1.12	 0.95;
	 124	 1	 5.959	 2.209	 0	 0	 1	 1.035	 0	 110	 3	 1.12	 0.95;
	 125	 1	 4.756	 1.116	 0	 0	 1	 1.035	 0	 110	 3	 1.12	 0.95;
	 126	 1	 0	 0	 0	 0	 1	 1.035	 0	 110	 3	 1.12	 0.95;
	 127	 1	 13.795	 2.862	 0	 0	 1	 1.035	 0	 110	 3	 1.12	 0.95;
	 128	 1	 0	 0	 0	 0	 1	 1.035	 0	 110	 3	 1.12	 0.95;
	 129	 1	 9.306	 1.077	 0	 0	 1	 1.035	 0	 110	 3	 1.12	 0.95;
	 130	 1	 0	 0	 0	 0	 1	 1.035	 0	 110	 3	 1.12	 0.95;
	 131	 1	 3.918	 0.933	 0	 0	 1	 1.035	 0	 110	 3	 1.12	 0.95;
	 132	 1	 8.667	 1.865	 0	 0	 1	 1.035	 0	 110	 3	 1.12	 0.95;
	 133	 1	 11.897	 0.971	 0	 0	 1	 1.035	 0	 110	 3	 1.12	 0.95;
	 134	 1	 0	 0	 0	 0	 1	 1.035	 0	 110	 3	 1.12	 0.95;
	 135	 1	 0	 0	 0	 0	 1	 1.035	 0	 110	 3	 1.12	 0.95;
	 136	 1	 0	 0	 0	 0	 1	 1.035	 0	 110	 3	 1.12	 0.95;
	 137	 1	 0	 0	 0	 0	 1	 1.035	 0	 110	 3	 1.12	 0.95;
	 138	 1	 0	 0	 0	 0	 1	 1.035	 0	 110	 3	 1.12	 0.95;
	 139	 1	 0	 0	 0	 0	 1	 1.035	 0	 110	 3	 1.12	 0.95;
	 140	 1	 0	 0	 0	 0	 1	 1.035	 0	 110	 3	 1.12	 0.95;
	 141	 1	 1.187	 0.466	 0	 0	 1	 1.035	 0	 110	 3	 1.12	 0.95;
	 142	 1	 0	 0	 0	 0	 1	 1.035	 0	 110	 3	 1.12	 0.95;
	 143	 2	 17.798	 10.249	 0	 0	 1	 1.035	 0	 110	 3	 1.12	 0.95;
	 144	 2	 5.925	 3.72	 0	 0	 1	 1.035	 0	 110	 3	 1.12	 0.95;
	 145	 1	 20.259	 6.045	 0	 0	 1	 1.035	 0	 110	 3	 1.12	 0.95;
	 146	 1	 0	 0	 0	 0	 1	 1.035	 0	 110	 3	 1.12	 0.95;
	 147	 1	 0	 0	 0	 0	 1	 1.035	 0	 110	 3	 1.12	 0.95;
	 148	 1	 5.342	 0.933	 0	 0	 1	 1.035	 0	 110	 3	 1.12	 0.95;
	 149	 1	 6.305	 1.69	 0	 0	 1	 1.035	 0	 110	 3	 1.12	 0.95;
	 150	 1	 0	 0	 0	 0	 1	 1.035	 0	 110	 3	 1.12	 0.95;
	 151	 1	 4.875	 0.831	 0	 0	 1	 1.035	 0	 110	 3	 1.12	 0.95;
	 152	 1	 12.017	 2.623	 0	 0	 1	 1.035	 0	 110	 3	 1.12	 0.95;
	 153	 1	 0	 0	 0	 0	 1	 1.035	 0	 110	 3	 1.12	 0.95;
	 154	 1	 1.9	 0.373	 0	 0	 1	 1.035	 0	 110	 3	 1.12	 0.95;
	 155	 1	 0	 0	 0	 0	 1	 1.035	 0	 110	 3	 1.12	 0.95;
	 156	 1	 19.063	 9.444	 0	 0	 1	 1.035	 0	 110	 3	 1.12	 0.95;
	 157	 1	 13.067	 3.022	 0	 0	 1	 1.035	 0	 110	 3	 1.12	 0.95;
	 158	 1	 0	 0	 0	 0	 1	 1.035	 0	 110	 3	 1.12	 0.95;
	 159	 1	 0	 0	 0	 0	 1	 1.035	 0	 110	 3	 1.12	 0.95;
	 160	 1	 2.018	 0.839	 0	 0	 1	 1.035	 0	 110	 3	 1.12	 0.95;
	 161	 1	 0	 0	 0	 0	 1	 1.035	 0	 110	 3	 1.12	 0.95;
	 162	 1	 0	 0	 0	 0	 1	 1.035	 0	 110	 3	 1.12	 0.95;
	 163	 1	 12.359	 1.259	 0	 0	 1	 1.035	 0	 110	 3	 1.12	 0.95;
	 164	 1	 7.123	 1.865	 0	 0	 1	 1.035	 0	 110	 3	 1.12	 0.95;
	 165	 1	 0	 0	 0	 0	 1	 1.035	 0	 110	 3	 1.12	 0.95;
	 166	 1	 3.356	 0.933	 0	 0	 1	 1.035	 0	 110	 3	 1.12	 0.95;
	 167	 1	 3.562	 0.933	 0	 0	 1	 1.035	 0	 110	 3	 1.12	 0.95;
	 168	 1	 2.374	 0	 0	 0	 1	 1.035	 0	 110	 3	 1.12	 0.95;
	 169	 1	 10.685	 0.933	 0	 0	 1	 1.035	 0	 110	 3	 1.12	 0.95;
	 170	 1	 0	 0	 0	 0	 1	 1.035	 0	 110	 3	 1.12	 0.95;
	 171	 2	 12.455	 1.482	 0	 0	 1	 1.035	 0	 110	 3	 1.12	 0.95;
	 172	 1	 8.667	 1.959	 0	 0	 1	 1.035	 0	 110	 3	 1.12	 0.95;
	 173	 1	 0	 0	 0	 0	 1	 1.035	 0	 110	 3	 1.12	 0.95;
	 174	 1	 0	 0	 0	 0	 1	 1.035	 0	 110	 3	 1.12	 0.95;
	 175	 1	 3.681	 0.933	 0	 0	 1	 1.035	 0	 110	 3	 1.12	 0.95;
	 176	 2	 17.749	 30.865	 0	 0	 1	 1.035	 0	 110	 3	 1.12	 0.95;
	 177	 1	 0	 0	 0	 0	 1	 1.035	 0	 110	 3	 1.12	 0.95;
	 178	 2	 13	 29	 0	 0	 1	 1.035	 0	 110	 3	 1.12	 0.95;
	 179	 1	 10.28	 2.84	 0	 0	 1	 1.035	 0	 110	 3	 1.12	 0.95;
	 180	 1	 17.864	 3.088	 0	 0	 1	 1.035	 0	 110	 3	 1.12	 0.95;
	 181	 1	 14.881	 3.378	 0	 0	 1	 1.035	 0	 110	 3	 1.12	 0.95;
	 182	 1	 0	 0	 0	 0	 1	 1.035	 0	 110	 3	 1.12	 0.95;
	 183	 1	 0	 0	 0	 0	 1	 1.035	 0	 110	 3	 1.12	 0.95;
	 184	 1	 2.255	 1.212	 0	 0	 1	 1.035	 0	 110	 3	 1.12	 0.95;
	 185	 1	 6.411	 2.611	 0	 0	 1	 1.035	 0	 110	 3	 1.12	 0.95;
	 186	 2	 18.391	 0.923	 0	 0	 1	 1.035	 0	 110	 3	 1.12	 0.95;
	 187	 2	 17.799	-1.875	 0	 0	 1	 1.035	 0	 110	 3	 1.12	 0.95;
	 188	 1	 0	 0	 0	 0	 1	 1.035	 0	 110	 3	 1.12	 0.95;
	 189	 1	 0	 0	 0	 0	 1	 1.035	 0	 110	 3	 1.12	 0.95;
	 190	 1	 4.753	 0.626	 0	 0	 1	 1.035	 0	 110	 3	 1.12	 0.95;
	 191	 1	 4.159	 0.144	 0	 0	 1	 1.035	 0	 110	 3	 1.12	 0.95;
	 192	 1	 0	 0	 0	 0	 1	 1.035	 0	 110	 3	 1.12	 0.95;
	 193	 1	 33	 12	 0	 0	 2	 1.035	 0	 110	 0	 1.12	 0.95;
	 194	 1	 33	 12	 0	 0	 2	 1.035	 0	 110	 0	 1.12	 0.95;
	 195	 1	 25	 10	 0	 0	 2	 1.035	 0	 110	 0	 1.12	 0.95;
	 196	 1	 65	 26	 0	 0	 2	 1.035	 0	 110	 0	 1.12	 0.95;
];

mpc_regionR2.gen = [
%	bus         Pg          Qg          Qmax        Qmin        Vg          mBase       status      Pmax        Pmin        Pc1         Pc2         Qc1min      Qc1max      Qc2min      Qc2max      ramp_agc    ramp_10     ramp_30     ramp_q      apf         
	 5	 179.5	 32.5	 113	-48	 1.03	 251.8	 1	 225	 134;
	 6	 179.5	 32.5	 113	-48	 1.03	 251.8	 1	 225	 134;
	 9	 187.5	 51	 113	-11	 1.03	 242.9	 1	 215	 160;
	 10	 182.5	 39.5	 84	-5	 1.03	 240.2	 1	 225	 140;
	 10	 0	 0	 80	-5	 1.03	 229.4	 0	 215	 160;
	 13	 7	 0.675	 1.35	 0	 1.035	 14.6	 1	 7	 7;
	 34	 13.511	 1.719	 3.438	 0	 1.035	 13.9	 1	 13.511	 13.511;
	 35	 14.999	 1.7235	 3.447	 0	 1.035	 17.9	 1	 14.999	 14.999;
	 56	 0	 0	 37.5	 16.8	 1.035	 62.5	 0	 0	 0;
	 57	 0	 0	 37.5	 7.5	 1.035	 62.5	 0	 0	 0;
	 57	 50	 22.5	 37.5	 7.5	 1.035	 62.5	 1	 50	 50;
	 58	 0	 0	 37.5	 16.8	 1.035	 62.5	 0	 0	 0;
	 88	 4.5	 0.75	 1.5	 0	 1.035	 5.7	 1	 4.5	 4.5;
	 103	 104.5	 32	 85	-21	 1.035	 151.2	 1	 125	 84;
	 103	 104.5	 32	 85	-21	 1.035	 151.2	 1	 125	 84;
	 108	 2	 0	 0	 0	 1.035	 4.5	 1	 2	 2;
	 110	 14.999	 0	 0	 0	 1.035	 20	 1	 14.999	 14.999;
	 111	 4	 0.5	 1	 0	 1.035	 4.1	 1	 4	 4;
	 112	 13.999	 3.375	 6.75	 0	 1.035	 30.8	 1	 13.999	 13.999;
	 113	 13.999	 3.375	 6.75	 0	 1.035	 19.9	 1	 13.999	 13.999;
	 143	 3.2	 0.4	 0.8	 0	 1.035	 3.3	 1	 3.2	 3.2;
	 144	 3.2	 0.4	 0.8	 0	 1.035	 3.3	 1	 3.2	 3.2;
	 171	 2.7	 0.5	 1	 0	 1.035	 2.9	 1	 2.7	 2.7;
	 176	 0	 0	 83	-5	 1.035	 239.8	 0	 225	 160;
	 176	 182.5	 51	 113	-11	 1.035	 251.8	 1	 225	 140;
	 178	 192.5	 34	 76	-8	 1.035	 237.5	 1	 225	 160;
	 186	 15	 3.5995	 7.199	 0	 1.035	 32.8	 1	 15	 15;
	 187	 15	 3.5995	 7.199	 0	 1.035	 32.8	 1	 15	 15;
	 36	 5.934	 0.709	 0.709	 0.709	 1.035	 6	 1	 5.934	 5.934;
];

mpc_regionR2.branch = [
%	fbus        tbus        r           x           b           rateA       rateB       rateC       ratio       angle       status      angmin      angmax      
	 4	 9	 0.004876	 0.033616	 0.059609	 446	 446	 446	 0	 0	 1	-30	 30;
	 10	 1	 0.00593	 0.04093	 0.072145	 446	 446	 446	 0	 0	 1	-30	 30;
	 9	 5	 0.003141	 0.021591	 0.038391	 446	 446	 446	 0	 0	 1	-30	 30;
	 10	 7	 0.004545	 0.03157	 0.055312	 373	 373	 373	 0	 0	 1	-30	 30;
	 5	 2	 0.001446	 0.009917	 0.017598	 373	 373	 373	 0	 0	 1	-30	 30;
	 57	 2	 0.00145	 0.0655	-0.002517	 160	 160	 160	 1.0007	 0	 1	-30	 30;
	 56	 3	 0.00145	 0.07045	-0.002517	 160	 160	 160	 1.0015	 0	 1	-30	 30;
	 103	 6	 0.001651	 0.068599	-0.002904	 160	 160	 160	 0.9899	 0	 1	-30	 30;
	 110	 7	 0.00145	 0.06756	-0.003485	 160	 160	 160	 1.0202	 0	 1	-30	 30;
	 178	 9	 0.00145	 0.068599	-0.002323	 160	 160	 160	 1.0013	 0	 1	-30	 30;
	 177	 10	 0.001651	 0.06818	-0.002904	 160	 160	 160	 1.01	 0	 1	-30	 30;
	 168	 98	 0.031736	 0.094215	 0.008361	 120	 120	 120	 0	 0	 1	-30	 30;
	 96	 98	 0.000496	 0.001157	 0.000135	 29	 29	 29	 0	 0	 1	-30	 30;
	 169	 99	 0.031736	 0.094215	 0.008361	 120	 120	 120	 0	 0	 1	-30	 30;
	 97	 99	 0.000496	 0.001157	 0.000135	 29	 29	 29	 0	 0	 1	-30	 30;
	 60	 110	 0.024793	 0.083471	 0.010285	 114	 114	 114	 0	 0	 1	-30	 30;
	 128	 110	 0.034876	 0.093058	 0.01232	 120	 120	 120	 0	 0	 1	-30	 30;
	 143	 108	 0.034298	 0.10595	 0.011374	 114	 114	 114	 0	 0	 1	-30	 30;
	 183	 109	 0.001488	 0.004793	 0.000494	 114	 114	 114	 0	 0	 1	-30	 30;
	 174	 183	 0.013223	 0.031322	 0.003403	 90	 90	 90	 0	 0	 1	-30	 30;
	 179	 174	 0.01438	 0.046198	 0.004867	 114	 114	 114	 0	 0	 1	-30	 30;
	 108	 59	 0.002975	 0.013058	 0.002154	 114	 114	 114	 0	 0	 1	-30	 30;
	 28	 36	 0.013471	 0.042645	 0.004646	 140	 140	 140	 0	 0	 1	-30	 30;
	 31	 28	 8.3e-05	 0.000248	 2.4e-05	 114	 114	 114	 0	 0	 1	-30	 30;
	 26	 28	 0.004628	 0.014132	 0.00167	 114	 114	 114	 0	 0	 1	-30	 30;
	 156	 100	 0.040248	 0.070579	 0.006735	 90	 90	 90	 0	 0	 1	-30	 30;
	 30	 156	 0.019669	 0.040579	 0.003599	 90	 90	 90	 0	 0	 1	-30	 30;
	 140	 30	 0.006942	 0.018678	 0.001767	 90	 90	 90	 0	 0	 1	-30	 30;
	 151	 140	 0.000661	 0.001157	 0.000169	 90	 90	 90	 0	 0	 1	-30	 30;
	 29	 30	 0.002727	 0.003636	 0.000322	 75	 75	 75	 0	 0	 1	-30	 30;
	 139	 140	 0.000165	 0.000496	 4.4e-05	 140	 140	 140	 0	 0	 1	-30	 30;
	 170	 103	 0.012562	 0.045041	 0.004371	 114	 114	 114	 0	 0	 1	-30	 30;
	 182	 19	 0.01	 0.025124	 0.002819	 120	 120	 120	 0	 0	 1	-30	 30;
	 185	 182	 0.005868	 0.020909	 0.002072	 140	 140	 140	 0	 0	 1	-30	 30;
	 192	 182	 8.3e-05	 0.000331	 3.6e-05	 140	 140	 140	 0	 0	 1	-30	 30;
	 15	 192	 0.000331	 0.000992	 0.000121	 114	 114	 114	 0	 0	 1	-30	 30;
	 190	 192	 0.004463	 0.013636	 0.001619	 140	 140	 140	 0	 0	 1	-30	 30;
	 11	 58	 0.013967	 0.043388	 0.004898	 140	 140	 140	 0	 0	 1	-30	 30;
	 111	 145	 0.006694	 0.017273	 0.002389	 120	 120	 120	 0	 0	 1	-30	 30;
	 111	 71	 0.004545	 0.013967	 0.001283	 120	 120	 120	 0	 0	 1	-30	 30;
	 72	 19	 0.005702	 0.01719	 0.002118	 140	 140	 140	 0	 0	 1	-30	 30;
	 181	 110	 0.013636	 0.033967	 0.003707	 120	 120	 120	 0	 0	 1	-30	 30;
	 110	 142	 0.008595	 0.021405	 0.002282	 120	 120	 120	 0	 0	 1	-30	 30;
	 77	 141	 0.009256	 0.022645	 0.002543	 120	 120	 120	 0	 0	 1	-30	 30;
	 149	 77	 0.004876	 0.013471	 0.001566	 120	 120	 120	 0	 0	 1	-30	 30;
	 77	 75	 0.000909	 0.002066	 0.000237	 120	 120	 120	 0	 0	 1	-30	 30;
	 111	 70	 0.016694	 0.045207	 0.005467	 120	 120	 120	 0	 0	 1	-30	 30;
	 135	 67	 0.000826	 0.002479	 0.000269	 114	 114	 114	 0	 0	 1	-30	 30;
	 50	 135	 0.002149	 0.003884	 0.000779	 120	 120	 120	 0	 0	 1	-30	 30;
	 69	 50	 0.00595	 0.010661	 0.002222	 120	 120	 120	 0	 0	 1	-30	 30;
	 135	 133	 0	 0.000826	 7e-06	 114	 114	 114	 0	 0	 1	-30	 30;
	 50	 48	 0.002397	 0.004876	 0.000704	 90	 90	 90	 0	 0	 1	-30	 30;
	 162	 169	 0.010083	 0.031901	 0.003453	 114	 114	 114	 0	 0	 1	-30	 30;
	 105	 121	 0.002231	 0.006612	 0.000789	 114	 114	 114	 0	 0	 1	-30	 30;
	 114	 152	 0.000992	 0.003058	 0.000346	 114	 114	 114	 0	 0	 1	-30	 30;
	 157	 114	 0.005785	 0.01843	 0.001951	 114	 114	 114	 0	 0	 1	-30	 30;
	 112	 114	 0.000826	 0.002397	 0.000281	 114	 114	 114	 0	 0	 1	-30	 30;
	 176	 156	 0.011901	 0.036446	 0.004262	 114	 114	 114	 0	 0	 1	-30	 30;
	 113	 152	 0.001488	 0.004628	 0.000549	 114	 114	 114	 0	 0	 1	-30	 30;
	 177	 94	 0.012975	 0.041074	 0.004484	 140	 140	 140	 0	 0	 1	-30	 30;
	 122	 35	 0.002397	 0.007273	 0.000857	 140	 140	 140	 0	 0	 1	-30	 30;
	 177	 119	 0.003802	 0.01157	 0.00137	 140	 140	 140	 0	 0	 1	-30	 30;
	 153	 178	 0.018347	 0.056777	 0.006459	 114	 114	 114	 0	 0	 1	-30	 30;
	 51	 34	 0.000992	 0.002893	 0.000349	 140	 140	 140	 0	 0	 1	-30	 30;
	 136	 51	 0.001488	 0.004463	 0.00053	 140	 140	 140	 0	 0	 1	-30	 30;
	 178	 136	 0.004298	 0.013388	 0.001474	 140	 140	 140	 0	 0	 1	-30	 30;
	 51	 49	 0.001322	 0.003884	 0.000462	 140	 140	 140	 0	 0	 1	-30	 30;
	 134	 136	 0	 0.000826	 7e-06	 114	 114	 114	 0	 0	 1	-30	 30;
	 73	 18	 0.002727	 0.008347	 0.000973	 140	 140	 140	 0	 0	 1	-30	 30;
	 189	 73	 0.002231	 0.007603	 0.000728	 140	 140	 140	 0	 0	 1	-30	 30;
	 186	 189	 8.3e-05	 0.000165	 1.7e-05	 140	 140	 140	 0	 0	 1	-30	 30;
	 71	 73	 0.003141	 0.009669	 0.001125	 140	 140	 140	 0	 0	 0	-30	 30;
	 188	 189	 0	 0.000826	 1e-05	 140	 140	 140	 0	 0	 1	-30	 30;
	 80	 57	 0.001074	 0.003388	 0.000387	 140	 140	 140	 0	 0	 1	-30	 30;
	 175	 80	 0.004545	 0.013884	 0.001614	 140	 140	 140	 0	 0	 1	-30	 30;
	 80	 78	 0.001157	 0.001488	 0.000281	 90	 90	 90	 0	 0	 1	-30	 30;
	 22	 57	 0.001074	 0.003388	 0.000387	 140	 140	 140	 0	 0	 1	-30	 30;
	 20	 22	 0.000661	 0.001901	 0.000225	 114	 114	 114	 0	 0	 1	-30	 30;
	 87	 57	 0.009339	 0.025289	 0.002592	 120	 120	 120	 0	 0	 1	-30	 30;
	 168	 87	 0.005702	 0.014545	 0.001534	 120	 120	 120	 0	 0	 1	-30	 30;
	 87	 84	 0.005537	 0.009339	 0.00097	 90	 90	 90	 0	 0	 1	-30	 30;
	 107	 57	 0.009339	 0.025289	 0.002592	 120	 120	 120	 0	 0	 1	-30	 30;
	 93	 107	 0.005702	 0.01438	 0.001513	 120	 120	 120	 0	 0	 1	-30	 30;
	 169	 93	 8.3e-05	 0.000248	 1.9e-05	 140	 140	 140	 0	 0	 1	-30	 30;
	 107	 106	 0.005537	 0.009256	 0.000961	 90	 90	 90	 0	 0	 1	-30	 30;
	 92	 93	 0.000165	 0.000413	 5.3e-05	 140	 140	 140	 0	 0	 1	-30	 30;
	 64	 56	 0.012479	 0.038265	 0.004414	 114	 114	 114	 0	 0	 1	-30	 30;
	 102	 64	 0.000909	 0.003388	 0.00039	 114	 114	 114	 0	 0	 1	-30	 30;
	 62	 64	 0.000413	 0.001322	 0.000128	 114	 114	 114	 0	 0	 1	-30	 30;
	 161	 58	 0.00876	 0.026942	 0.003112	 114	 114	 114	 0	 0	 1	-30	 30;
	 65	 161	 0.003802	 0.012066	 0.001396	 140	 140	 140	 0	 0	 1	-30	 30;
	 103	 65	 0.000826	 0.002562	 0.000293	 114	 114	 114	 0	 0	 1	-30	 30;
	 160	 161	 0.002066	 0.006364	 0.000753	 140	 140	 140	 0	 0	 1	-30	 30;
	 61	 65	 0.000413	 0.001322	 0.00016	 114	 114	 114	 0	 0	 1	-30	 30;
	 155	 56	 0.003719	 0.009008	 0.000999	 120	 120	 120	 0	 0	 1	-30	 30;
	 154	 155	 0.002645	 0.006116	 0.00129	 140	 140	 140	 0	 0	 1	-30	 30;
	 81	 56	 0.00157	 0.004793	 0.000566	 140	 140	 140	 0	 0	 1	-30	 30;
	 118	 81	 0.007438	 0.022562	 0.00266	 140	 140	 140	 0	 0	 1	-30	 30;
	 81	 79	 0.000744	 0.001405	 0.000293	 120	 120	 120	 0	 0	 1	-30	 30;
	 116	 118	 0.000248	 0.000496	 4.6e-05	 90	 90	 90	 0	 0	 1	-30	 30;
	 91	 56	 0.00876	 0.026529	 0.003124	 140	 140	 140	 0	 0	 1	-30	 30;
	 168	 38	 0.001818	 0.00562	 0.000665	 140	 140	 140	 0	 0	 1	-30	 30;
	 38	 37	 0.000579	 0.001653	 0.000194	 140	 140	 140	 0	 0	 1	-30	 30;
	 54	 58	 0.007521	 0.023058	 0.002413	 120	 120	 120	 0	 0	 1	-30	 30;
	 85	 54	 0.000331	 0.001157	 0.000116	 114	 114	 114	 0	 0	 1	-30	 30;
	 52	 54	 0.002397	 0.007521	 0.000847	 114	 114	 114	 0	 0	 1	-30	 30;
	 178	 18	 0.02405	 0.076281	 0.008259	 140	 140	 140	 0	 0	 1	-30	 30;
	 117	 41	 0.005785	 0.016116	 0.001876	 120	 120	 120	 0	 0	 1	-30	 30;
	 90	 117	 0.002066	 0.006446	 0.000748	 140	 140	 140	 0	 0	 1	-30	 30;
	 115	 117	 0.000248	 0.000496	 4.6e-05	 90	 90	 90	 0	 0	 1	-30	 30;
	 173	 147	 0.019256	 0.061488	 0.006558	 140	 140	 140	 0	 0	 1	-30	 30;
	 176	 173	 0.010413	 0.033471	 0.003533	 140	 140	 140	 0	 0	 1	-30	 30;
	 172	 173	 0.001653	 0.005537	 0.000525	 140	 140	 140	 0	 0	 1	-30	 30;
	 166	 152	 0.004711	 0.014628	 0.001667	 114	 114	 114	 0	 0	 1	-30	 30;
	 126	 27	 0.004793	 0.015785	 0.001561	 140	 140	 140	 0	 0	 1	-30	 30;
	 103	 126	 0.007438	 0.02405	 0.002522	 114	 114	 114	 0	 0	 1	-30	 30;
	 124	 126	 8.3e-05	 0.000826	 1.9e-05	 140	 140	 140	 0	 0	 1	-30	 30;
	 66	 102	 0.000744	 0.002314	 0.00024	 114	 114	 114	 0	 0	 1	-30	 30;
	 125	 66	 0.006777	 0.021736	 0.002294	 114	 114	 114	 0	 0	 1	-30	 30;
	 63	 66	 0.000909	 0.003141	 0.000298	 114	 114	 114	 0	 0	 1	-30	 30;
	 178	 68	 0.003554	 0.011157	 0.001258	 140	 140	 140	 0	 0	 1	-30	 30;
	 178	 104	 0.009421	 0.029917	 0.003214	 140	 140	 140	 0	 0	 1	-30	 30;
	 159	 120	 0.007107	 0.022066	 0.002517	 140	 140	 140	 0	 0	 1	-30	 30;
	 153	 159	 0.000992	 0.003058	 0.000351	 114	 114	 114	 0	 0	 1	-30	 30;
	 158	 159	 0.00124	 0.003636	 0.000436	 140	 140	 140	 0	 0	 1	-30	 30;
	 57	 44	 0.004959	 0.016694	 0.001597	 140	 140	 140	 0	 0	 1	-30	 30;
	 57	 45	 0.003388	 0.010248	 0.001217	 140	 140	 140	 0	 0	 1	-30	 30;
	 167	 165	 0.003388	 0.011488	 0.001096	 140	 140	 140	 0	 0	 1	-30	 30;
	 17	 143	 0.010992	 0.027851	 0.003979	 120	 120	 120	 0	 0	 1	-30	 30;
	 17	 171	 0.005785	 0.020496	 0.002033	 114	 114	 114	 0	 0	 1	-30	 30;
	 16	 17	 0.000248	 0.000826	 9.7e-05	 140	 140	 140	 0	 0	 1	-30	 30;
	 23	 57	 0.000413	 0.00124	 0.000133	 114	 114	 114	 0	 0	 1	-30	 30;
	 25	 23	 0.002727	 0.007686	 0.000794	 120	 120	 120	 0	 0	 1	-30	 30;
	 55	 25	 0.00438	 0.014132	 0.001486	 114	 114	 114	 0	 0	 1	-30	 30;
	 86	 55	 0.000331	 0.001074	 0.000123	 114	 114	 114	 0	 0	 1	-30	 30;
	 21	 23	 0.00124	 0.003884	 0.000452	 114	 114	 114	 0	 0	 1	-30	 30;
	 25	 24	 0.003388	 0.011405	 0.001089	 114	 114	 114	 0	 0	 1	-30	 30;
	 53	 55	 0.002231	 0.006942	 0.000784	 114	 114	 114	 0	 0	 1	-30	 30;
	 42	 82	 0.004959	 0.015124	 0.001793	 140	 140	 140	 0	 0	 1	-30	 30;
	 168	 148	 0.002314	 0.007355	 0.000784	 140	 140	 140	 0	 0	 1	-30	 30;
	 76	 157	 0.008182	 0.020331	 0.002188	 120	 120	 120	 0	 0	 1	-30	 30;
	 180	 76	 0.004711	 0.011735	 0.001341	 120	 120	 120	 0	 0	 1	-30	 30;
	 74	 76	 0.000909	 0.002066	 0.000237	 120	 120	 120	 0	 0	 1	-30	 30;
	 146	 187	 0.001405	 0.003471	 0.000506	 120	 120	 120	 0	 0	 1	-30	 30;
	 176	 163	 0.017603	 0.056281	 0.005973	 140	 140	 140	 0	 0	 1	-30	 30;
	 18	 143	 0.008595	 0.027603	 0.002909	 140	 140	 140	 0	 0	 1	-30	 30;
	 177	 144	 0.026198	 0.08405	 0.008869	 114	 114	 114	 0	 0	 1	-30	 30;
	 111	 143	 0.040248	 0.129587	 0.013608	 140	 140	 140	 0	 0	 1	-30	 30;
	 164	 33	 0.006364	 0.02124	 0.002072	 140	 140	 140	 0	 0	 1	-30	 30;
	 83	 178	 0.011735	 0.037107	 0.004029	 114	 114	 114	 0	 0	 1	-30	 30;
	 103	 184	 0.012893	 0.046446	 0.004487	 114	 114	 114	 0	 0	 1	-30	 30;
	 110	 138	 0.019422	 0.062397	 0.006585	 114	 114	 114	 0	 0	 1	-30	 30;
	 137	 144	 0.020827	 0.067025	 0.007069	 140	 140	 140	 0	 0	 1	-30	 30;
	 58	 32	 0.007603	 0.023141	 0.002713	 140	 140	 140	 0	 0	 1	-30	 30;
	 43	 191	 0.004132	 0.012645	 0.001498	 140	 140	 140	 0	 0	 1	-30	 30;
	 95	 12	 0.012479	 0.039669	 0.004279	 140	 140	 140	 0	 0	 1	-30	 30;
	 103	 123	 0.027686	 0.071488	 0.007393	 120	 120	 120	 0	 0	 1	-30	 30;
	 11	 131	 0.000826	 0.002645	 0.000305	 140	 140	 140	 0	 0	 1	-30	 30;
	 12	 132	 0.000826	 0.002645	 0.00031	 140	 140	 140	 0	 0	 1	-30	 30;
	 150	 157	 0.006116	 0.016612	 0.001842	 120	 120	 120	 0	 0	 1	-30	 30;
	 130	 143	 0.003141	 0.009421	 0.001118	 140	 140	 140	 0	 0	 1	-30	 30;
	 13	 149	 0.000744	 0.002314	 0.000254	 114	 114	 114	 0	 0	 1	-30	 30;
	 14	 150	 0.000661	 0.002149	 0.000237	 114	 114	 114	 0	 0	 1	-30	 30;
	 46	 162	 0.000331	 0.000992	 0.000121	 114	 114	 114	 0	 0	 1	-30	 30;
	 47	 163	 0.000331	 0.000992	 0.000119	 114	 114	 114	 0	 0	 1	-30	 30;
	 88	 11	 0.000331	 0.000992	 0.000114	 114	 114	 114	 0	 0	 1	-30	 30;
	 89	 12	 0.000413	 0.001322	 0.000157	 114	 114	 114	 0	 0	 1	-30	 30;
	 39	 42	 0.000165	 0.000579	 6.5e-05	 114	 114	 114	 0	 0	 1	-30	 30;
	 40	 43	 0.000165	 0.000579	 6.8e-05	 114	 114	 114	 0	 0	 1	-30	 30;
	 60	 137	 0.004628	 0.02157	 0.003942	 114	 114	 114	 0	 0	 0	-30	 30;
	 195	 109	 0.010413	 0.033554	 0.003543	 140	 140	 140	 0	 0	 1	-30	 30;
	 196	 183	 0.009752	 0.030496	 0.003151	 140	 140	 140	 0	 0	 1	-30	 30;
	 194	 137	 0.005702	 0.018264	 0.001922	 57	 57	 57	 0	 0	 1	-30	 30;
	 193	 138	 0.005702	 0.018264	 0.001922	 57	 57	 57	 0	 0	 1	-30	 30;
	 3	 2	 2.1e-05	 0.000207	 0	 876	 876	 876	 0	 0	 1	-30	 30;
	 6	 5	 2.1e-05	 0.000207	 0	 876	 876	 876	 0	 0	 1	-30	 30;
	 8	 7	 2.1e-05	 0.000207	 0	 876	 876	 876	 0	 0	 1	-30	 30;
	 10	 9	 2.1e-05	 0.000207	 0	 876	 876	 876	 0	 0	 1	-30	 30;
	 12	 11	 8.3e-05	 0.000826	 0	 438	 438	 438	 0	 0	 1	-30	 30;
	 16	 15	 0	 0.0001	 0	 438	 438	 438	 0	 0	 0	-30	 30;
	 19	 18	 8.3e-05	 0.000826	 0	 438	 438	 438	 0	 0	 0	-30	 30;
	 21	 20	 0	 0.0001	 0	 438	 438	 438	 0	 0	 0	-30	 30;
	 27	 26	 0	 0.0001	 0	 438	 438	 438	 0	 0	 0	-30	 30;
	 32	 31	 8.3e-05	 0.000826	 0	 438	 438	 438	 0	 0	 1	-30	 30;
	 34	 33	 8.3e-05	 0.000826	 0	 438	 438	 438	 0	 0	 1	-30	 30;
	 36	 35	 8.3e-05	 0.000826	 0	 438	 438	 438	 0	 0	 1	-30	 30;
	 43	 42	 8.3e-05	 0.000826	 0	 438	 438	 438	 0	 0	 1	-30	 30;
	 45	 44	 0	 0.0001	 0	 438	 438	 438	 0	 0	 0	-30	 30;
	 53	 52	 0	 0.0001	 0	 438	 438	 438	 0	 0	 0	-30	 30;
	 57	 56	 8.3e-05	 0.000826	 0	 438	 438	 438	 0	 0	 0	-30	 30;
	 58	 57	 8.3e-05	 0.000826	 0	 438	 438	 438	 0	 0	 0	-30	 30;
	 56	 58	 8.3e-05	 0.000826	 0	 438	 438	 438	 0	 0	 0	-30	 30;
	 60	 59	 8.3e-05	 0.000826	 0	 438	 438	 438	 0	 0	 1	-30	 30;
	 62	 61	 0	 0.0001	 0	 438	 438	 438	 0	 0	 0	-30	 30;
	 63	 62	 0	 0.0001	 0	 438	 438	 438	 0	 0	 0	-30	 30;
	 68	 67	 8.3e-05	 0.000826	 0	 438	 438	 438	 0	 0	 1	-30	 30;
	 70	 69	 8.3e-05	 0.000826	 0	 438	 438	 438	 0	 0	 1	-30	 30;
	 72	 71	 8.3e-05	 0.000826	 0	 438	 438	 438	 0	 0	 1	-30	 30;
	 83	 82	 8.3e-05	 0.000826	 0	 438	 438	 438	 0	 0	 1	-30	 30;
	 85	 84	 0	 0.0001	 0	 438	 438	 438	 0	 0	 0	-30	 30;
...
];

mpc_regionR2.gencost = [
%	2           startup     shutdown    n           c(n-1)...c0 
	 2	 0	 0	 3	 0	 92.78	 0;
	 2	 0	 0	 3	 0	 92.78	 0;
	 2	 0	 0	 3	 0	 91.16	 0;
	 2	 0	 0	 3	 0	 91.16	 0;
	 2	 0	 0	 3	 0	 91.16	 0;
	 2	 0	 0	 3	 0	 0	 0;
	 2	 0	 0	 3	 0	 0	 0;
	 2	 0	 0	 3	 0	 0	 0;
	 2	 0	 0	 3	 0	 0	 0;
	 2	 0	 0	 3	 0	 0	 0;
	 2	 0	 0	 3	 0	 0	 0;
	 2	 0	 0	 3	 0	 0	 0;
	 2	 0	 0	 3	 0	 0	 0;
	 2	 0	 0	 3	 0	 92.78	 0;
	 2	 0	 0	 3	 0	 92.78	 0;
	 2	 0	 0	 3	 0	 0	 0;
	 2	 0	 0	 3	 0	 0	 0;
	 2	 0	 0	 3	 0	 0	 0;
	 2	 0	 0	 3	 0	 0	 0;
	 2	 0	 0	 3	 0	 0	 0;
	 2	 0	 0	 3	 0	 0	 0;
	 2	 0	 0	 3	 0	 0	 0;
	 2	 0	 0	 3	 0	 0	 0;
	 2	 0	 0	 3	 0	 91.16	 0;
	 2	 0	 0	 3	 0	 91.16	 0;
	 2	 0	 0	 3	 0	 91.16	 0;
	 2	 0	 0	 3	 0	 0	 0;
	 2	 0	 0	 3	 0	 0	 0;
	 2	 0	 0	 3	 0	 0	 0;
];


% -------------------- mpc_regionR3 --------------------

mpc_regionR3.version = '2';
mpc_regionR3.baseMVA = 100.0000;
mpc_regionR3.bus = [
%	bus_i       type        Pd          Qd          Gs          Bs          area        Vm          Va          baseKV      zone        Vmax        Vmin        
	 1	 1	 0	 0	 0	 0	 1	 1.03	 0	 220	 3	 1.11	 0.95;
	 2	 1	 0	 0	 0	 0	 1	 1.03	 0	 220	 3	 1.11	 0.95;
	 3	 1	 0	 0	 0	 0	 1	 1.03	 0	 220	 3	 1.11	 0.95;
	 4	 1	 0	 0	 0	 0	 1	 1.03	 0	 220	 3	 1.11	 0.95;
	 5	 1	 10.328	 2.61	 0	 0	 1	 1.03	 0	 220	 3	 1.11	 0.95;
	 6	 1	 0	 0	 0	 0	 1	 1.03	 0	 220	 3	 1.11	 0.95;
	 7	 1	 0	 0	 0	 0	 1	 1.03	 0	 220	 3	 1.11	 0.95;
	 8	 1	 0	 0	 0	 0	 1	 1.03	 0	 220	 3	 1.11	 0.95;
	 9	 1	 0	 0	 0	 0	 1	 1.03	 0	 220	 3	 1.11	 0.95;
	 10	 1	 0	 0	 0	 0	 1	 1.03	 0	 220	 3	 1.11	 0.95;
	 11	 2	 3	 18	 0	 0	 1	 1.03	 0	 220	 3	 1.11	 0.95;
	 12	 2	 2	 6	 0	 0	 1	 1.03	 0	 220	 3	 1.11	 0.95;
	 13	 1	 15.621	 3.927	 0	 0	 1	 1.035	 0	 110	 3	 1.12	 0.95;
	 14	 1	 0	 0	 0	 0	 1	 1.035	 0	 110	 3	 1.12	 0.95;
	 15	 1	 23.487	 4.71	 0	 0	 1	 1.035	 0	 110	 3	 1.12	 0.95;
	 16	 2	 0	-0.01	 0	 0	 1	 1.035	 0	 110	 3	 1.12	 0.95;
	 17	 1	 0	 0	 0	 0	 1	 1.035	 0	 110	 3	 1.12	 0.95;
	 18	 1	 8.785	 3.17	 0	 0	 1	 1.035	 0	 110	 3	 1.12	 0.95;
	 19	 1	 0	 0	 0	 0	 1	 1.035	 0	 110	 3	 1.12	 0.95;
	 20	 1	 3.562	 1.772	 0	 0	 1	 1.035	 0	 110	 3	 1.12	 0.95;
	 21	 1	 0	 0	 0	 0	 1	 1.035	 0	 110	 3	 1.12	 0.95;
	 22	 1	 24.136	 6.557	 0	 0	 1	 1.035	 0	 110	 3	 1.12	 0.95;
	 23	 1	 0	 0	 0	 0	 1	 1.035	 0	 110	 3	 1.12	 0.95;
	 24	 1	 19.728	 3.946	 0	 0	 1	 1.035	 0	 110	 3	 1.12	 0.95;
	 25	 1	 0	 0	 0	 0	 1	 1.035	 0	 110	 3	 1.12	 0.95;
	 26	 1	 11.18	 0.914	 0	 0	 1	 1.035	 0	 110	 3	 1.12	 0.95;
	 27	 1	 0	 0	 0	 0	 1	 1.035	 0	 110	 3	 1.12	 0.95;
	 28	 2	 20.679	 6.687	 0	 0	 1	 1.035	 0	 110	 3	 1.12	 0.95;
	 29	 1	 0	 0	 0	 0	 1	 1.035	 0	 110	 3	 1.12	 0.95;
	 30	 2	 0	-0.01	 0	 0	 1	 1.035	 0	 110	 3	 1.12	 0.95;
	 31	 1	 46.302	 22.383	 0	 0	 1	 1.035	 0	 110	 3	 1.12	 0.95;
	 32	 2	 0	-0.01	 0	 0	 1	 1.035	 0	 110	 3	 1.12	 0.95;
	 33	 2	 26.881	 8.08	 0	 0	 1	 1.035	 0	 110	 3	 1.12	 0.95;
	 34	 2	 0	 1.5	 0	 0	 1	 1.035	 0	 110	 3	 1.12	 0.95;
	 35	 2	 7.9	 3	 0	 0	 1	 1.035	 0	 110	 3	 1.12	 0.95;
	 36	 1	 0	 0	 0	 0	 1	 1.035	 0	 110	 3	 1.12	 0.95;
	 37	 1	 9.688	 1.949	 0	 0	 1	 1.035	 0	 110	 3	 1.12	 0.95;
	 38	 1	 0	 0	 0	 0	 1	 1.035	 0	 110	 3	 1.12	 0.95;
	 39	 1	 10.825	 2.544	 0	 0	 1	 1.035	 0	 110	 3	 1.12	 0.95;
	 40	 1	 9.872	 2.171	 0	 0	 1	 1.035	 0	 110	 3	 1.12	 0.95;
	 41	 1	 0	 0	 0	 0	 1	 1.035	 0	 110	 3	 1.12	 0.95;
...